
---------- Begin Simulation Statistics ----------
final_tick                                14510883000                       # Number of ticks from beginning of simulation (restored from checkpoints and never reset)
host_inst_rate                                  22506                       # Simulator instruction rate (inst/s)
host_mem_usage                                 870540                       # Number of bytes of host memory used
host_op_rate                                    25520                       # Simulator op (including micro ops) rate (op/s)
host_seconds                                   444.32                       # Real time elapsed on the host
host_tick_rate                               32658896                       # Simulator tick rate (ticks/s)
sim_freq                                 1000000000000                       # Frequency of simulated ticks
sim_insts                                    10000000                       # Number of instructions simulated
sim_ops                                      11338771                       # Number of ops (including micro ops) simulated
sim_seconds                                  0.014511                       # Number of seconds simulated
sim_ticks                                 14510883000                       # Number of ticks simulated
system.cpu.branchPred.BTBCorrect                    0                       # Number of correct BTB predictions (this stat may not work properly.
system.cpu.branchPred.BTBHitPct             99.903382                       # BTB Hit Percentage
system.cpu.branchPred.BTBHits                  915090                       # Number of BTB hits
system.cpu.branchPred.BTBLookups               915975                       # Number of BTB lookups
system.cpu.branchPred.RASInCorrect                  1                       # Number of incorrect RAS predictions.
system.cpu.branchPred.condIncorrect               934                       # Number of conditional branches incorrect
system.cpu.branchPred.condPredicted           1791347                       # Number of conditional branches predicted
system.cpu.branchPred.indirectHits              30240                       # Number of indirect target hits.
system.cpu.branchPred.indirectLookups           30451                       # Number of indirect predictor lookups.
system.cpu.branchPred.indirectMisses              211                       # Number of indirect misses.
system.cpu.branchPred.lookups                 2229241                       # Number of BP lookups
system.cpu.branchPred.usedRAS                  109231                       # Number of times the RAS was used to get a target.
system.cpu.branchPredindirectMispredicted           74                       # Number of mispredicted indirect branches.
system.cpu.cc_regfile_reads                   4683405                       # number of cc regfile reads
system.cpu.cc_regfile_writes                  4440195                       # number of cc regfile writes
system.cpu.commit.amos                              0                       # Number of atomic instructions committed
system.cpu.commit.branchMispredicts               679                       # The number of times a branch was mispredicted
system.cpu.commit.branches                    2221351                       # Number of branches committed
system.cpu.commit.bw_lim_events                290105                       # number cycles where commit BW limit reached
system.cpu.commit.commitNonSpecStalls           12142                       # The number of times commit has been forced to stall to communicate backwards
system.cpu.commit.commitSquashedInsts           36166                       # The number of squashed insts skipped by commit
system.cpu.commit.committedInsts             10006066                       # Number of instructions committed
system.cpu.commit.committedOps               11344837                       # Number of ops (including micro ops) committed
system.cpu.commit.committed_per_cycle::samples     24943546                       # Number of insts commited each cycle
system.cpu.commit.committed_per_cycle::mean     0.454821                       # Number of insts commited each cycle
system.cpu.commit.committed_per_cycle::stdev     1.302774                       # Number of insts commited each cycle
system.cpu.commit.committed_per_cycle::underflows            0      0.00%      0.00% # Number of insts commited each cycle
system.cpu.commit.committed_per_cycle::0     20351543     81.59%     81.59% # Number of insts commited each cycle
system.cpu.commit.committed_per_cycle::1      2194699      8.80%     90.39% # Number of insts commited each cycle
system.cpu.commit.committed_per_cycle::2       916341      3.67%     94.06% # Number of insts commited each cycle
system.cpu.commit.committed_per_cycle::3       502985      2.02%     96.08% # Number of insts commited each cycle
system.cpu.commit.committed_per_cycle::4       308196      1.24%     97.31% # Number of insts commited each cycle
system.cpu.commit.committed_per_cycle::5       121396      0.49%     97.80% # Number of insts commited each cycle
system.cpu.commit.committed_per_cycle::6       160070      0.64%     98.44% # Number of insts commited each cycle
system.cpu.commit.committed_per_cycle::7        98211      0.39%     98.84% # Number of insts commited each cycle
system.cpu.commit.committed_per_cycle::8       290105      1.16%    100.00% # Number of insts commited each cycle
system.cpu.commit.committed_per_cycle::overflows            0      0.00%    100.00% # Number of insts commited each cycle
system.cpu.commit.committed_per_cycle::min_value            0                       # Number of insts commited each cycle
system.cpu.commit.committed_per_cycle::max_value            8                       # Number of insts commited each cycle
system.cpu.commit.committed_per_cycle::total     24943546                       # Number of insts commited each cycle
system.cpu.commit.fp_insts                          0                       # Number of committed floating point instructions.
system.cpu.commit.function_calls               109017                       # Number of function calls committed.
system.cpu.commit.int_insts                   9861989                       # Number of committed integer instructions.
system.cpu.commit.loads                       1710889                       # Number of loads committed
system.cpu.commit.membars                       12120                       # Number of memory barriers committed
system.cpu.commit.op_class_0::No_OpClass         8314      0.07%      0.07% # Class of committed instruction
system.cpu.commit.op_class_0::IntAlu          7690808     67.79%     67.86% # Class of committed instruction
system.cpu.commit.op_class_0::IntMult           60460      0.53%     68.40% # Class of committed instruction
system.cpu.commit.op_class_0::IntDiv                3      0.00%     68.40% # Class of committed instruction
system.cpu.commit.op_class_0::FloatAdd              0      0.00%     68.40% # Class of committed instruction
system.cpu.commit.op_class_0::FloatCmp              0      0.00%     68.40% # Class of committed instruction
system.cpu.commit.op_class_0::FloatCvt              0      0.00%     68.40% # Class of committed instruction
system.cpu.commit.op_class_0::FloatMult             0      0.00%     68.40% # Class of committed instruction
system.cpu.commit.op_class_0::FloatMultAcc            0      0.00%     68.40% # Class of committed instruction
system.cpu.commit.op_class_0::FloatDiv              0      0.00%     68.40% # Class of committed instruction
system.cpu.commit.op_class_0::FloatMisc             0      0.00%     68.40% # Class of committed instruction
system.cpu.commit.op_class_0::FloatSqrt             0      0.00%     68.40% # Class of committed instruction
system.cpu.commit.op_class_0::SimdAdd           18890      0.17%     68.56% # Class of committed instruction
system.cpu.commit.op_class_0::SimdAddAcc            0      0.00%     68.56% # Class of committed instruction
system.cpu.commit.op_class_0::SimdAlu           18886      0.17%     68.73% # Class of committed instruction
system.cpu.commit.op_class_0::SimdCmp           16638      0.15%     68.88% # Class of committed instruction
system.cpu.commit.op_class_0::SimdCvt               0      0.00%     68.88% # Class of committed instruction
system.cpu.commit.op_class_0::SimdMisc          22677      0.20%     69.08% # Class of committed instruction
system.cpu.commit.op_class_0::SimdMult              0      0.00%     69.08% # Class of committed instruction
system.cpu.commit.op_class_0::SimdMultAcc            0      0.00%     69.08% # Class of committed instruction
system.cpu.commit.op_class_0::SimdShift             0      0.00%     69.08% # Class of committed instruction
system.cpu.commit.op_class_0::SimdShiftAcc            0      0.00%     69.08% # Class of committed instruction
system.cpu.commit.op_class_0::SimdDiv               0      0.00%     69.08% # Class of committed instruction
system.cpu.commit.op_class_0::SimdSqrt              0      0.00%     69.08% # Class of committed instruction
system.cpu.commit.op_class_0::SimdFloatAdd            0      0.00%     69.08% # Class of committed instruction
system.cpu.commit.op_class_0::SimdFloatAlu            0      0.00%     69.08% # Class of committed instruction
system.cpu.commit.op_class_0::SimdFloatCmp            0      0.00%     69.08% # Class of committed instruction
system.cpu.commit.op_class_0::SimdFloatCvt            0      0.00%     69.08% # Class of committed instruction
system.cpu.commit.op_class_0::SimdFloatDiv            0      0.00%     69.08% # Class of committed instruction
system.cpu.commit.op_class_0::SimdFloatMisc            0      0.00%     69.08% # Class of committed instruction
system.cpu.commit.op_class_0::SimdFloatMult            0      0.00%     69.08% # Class of committed instruction
system.cpu.commit.op_class_0::SimdFloatMultAcc            0      0.00%     69.08% # Class of committed instruction
system.cpu.commit.op_class_0::SimdFloatSqrt            0      0.00%     69.08% # Class of committed instruction
system.cpu.commit.op_class_0::SimdReduceAdd            0      0.00%     69.08% # Class of committed instruction
system.cpu.commit.op_class_0::SimdReduceAlu            0      0.00%     69.08% # Class of committed instruction
system.cpu.commit.op_class_0::SimdReduceCmp            0      0.00%     69.08% # Class of committed instruction
system.cpu.commit.op_class_0::SimdFloatReduceAdd            0      0.00%     69.08% # Class of committed instruction
system.cpu.commit.op_class_0::SimdFloatReduceCmp            0      0.00%     69.08% # Class of committed instruction
system.cpu.commit.op_class_0::SimdAes               0      0.00%     69.08% # Class of committed instruction
system.cpu.commit.op_class_0::SimdAesMix            0      0.00%     69.08% # Class of committed instruction
system.cpu.commit.op_class_0::SimdSha1Hash            0      0.00%     69.08% # Class of committed instruction
system.cpu.commit.op_class_0::SimdSha1Hash2            0      0.00%     69.08% # Class of committed instruction
system.cpu.commit.op_class_0::SimdSha256Hash            0      0.00%     69.08% # Class of committed instruction
system.cpu.commit.op_class_0::SimdSha256Hash2            0      0.00%     69.08% # Class of committed instruction
system.cpu.commit.op_class_0::SimdShaSigma2            0      0.00%     69.08% # Class of committed instruction
system.cpu.commit.op_class_0::SimdShaSigma3            0      0.00%     69.08% # Class of committed instruction
system.cpu.commit.op_class_0::SimdPredAlu            0      0.00%     69.08% # Class of committed instruction
system.cpu.commit.op_class_0::MemRead         1710889     15.08%     84.16% # Class of committed instruction
system.cpu.commit.op_class_0::MemWrite        1797272     15.84%    100.00% # Class of committed instruction
system.cpu.commit.op_class_0::FloatMemRead            0      0.00%    100.00% # Class of committed instruction
system.cpu.commit.op_class_0::FloatMemWrite            0      0.00%    100.00% # Class of committed instruction
system.cpu.commit.op_class_0::IprAccess             0      0.00%    100.00% # Class of committed instruction
system.cpu.commit.op_class_0::InstPrefetch            0      0.00%    100.00% # Class of committed instruction
system.cpu.commit.op_class_0::total          11344837                       # Class of committed instruction
system.cpu.commit.refs                        3508161                       # Number of memory references committed
system.cpu.commit.swp_count                         0                       # Number of s/w prefetches committed
system.cpu.commit.vec_insts                    198825                       # Number of committed Vector instructions.
system.cpu.committedInsts                    10000000                       # Number of Instructions Simulated
system.cpu.committedOps                      11338771                       # Number of Ops (including micro ops) Simulated
system.cpu.cpi                               2.902177                       # CPI: Cycles Per Instruction
system.cpu.cpi_total                         2.902177                       # CPI: Total CPI of All Threads
system.cpu.decode.BlockedCycles               2708287                       # Number of cycles decode is blocked
system.cpu.decode.BranchMispred                   258                       # Number of times decode detected a branch misprediction
system.cpu.decode.BranchResolved               914431                       # Number of times decode resolved a branch
system.cpu.decode.DecodedInsts               11385529                       # Number of instructions handled by decode
system.cpu.decode.IdleCycles                 20011056                       # Number of cycles decode is idle
system.cpu.decode.RunCycles                   2197482                       # Number of cycles decode is running
system.cpu.decode.SquashCycles                   1344                       # Number of cycles decode is squashing
system.cpu.decode.SquashedInsts                   917                       # Number of squashed instructions handled by decode
system.cpu.decode.UnblockCycles                 30577                       # Number of cycles decode is unblocking
system.cpu.dtb.accesses                             0                       # DTB accesses
system.cpu.dtb.align_faults                         0                       # Number of TLB faults due to alignment restrictions
system.cpu.dtb.domain_faults                        0                       # Number of TLB faults due to domain restrictions
system.cpu.dtb.flush_entries                        0                       # Number of entries that have been flushed from TLB
system.cpu.dtb.flush_tlb                            0                       # Number of times complete TLB was flushed
system.cpu.dtb.flush_tlb_asid                       0                       # Number of times TLB was flushed by ASID
system.cpu.dtb.flush_tlb_mva                        0                       # Number of times TLB was flushed by MVA
system.cpu.dtb.flush_tlb_mva_asid                   0                       # Number of times TLB was flushed by MVA & ASID
system.cpu.dtb.hits                                 0                       # DTB hits
system.cpu.dtb.inst_accesses                        0                       # ITB inst accesses
system.cpu.dtb.inst_hits                            0                       # ITB inst hits
system.cpu.dtb.inst_misses                          0                       # ITB inst misses
system.cpu.dtb.misses                               0                       # DTB misses
system.cpu.dtb.perms_faults                         0                       # Number of TLB faults due to permissions restrictions
system.cpu.dtb.prefetch_faults                      0                       # Number of TLB faults due to prefetch
system.cpu.dtb.read_accesses                        0                       # DTB read accesses
system.cpu.dtb.read_hits                            0                       # DTB read hits
system.cpu.dtb.read_misses                          0                       # DTB read misses
system.cpu.dtb.stage2_mmu.stage2_tlb.accesses            0                       # DTB accesses
system.cpu.dtb.stage2_mmu.stage2_tlb.align_faults            0                       # Number of TLB faults due to alignment restrictions
system.cpu.dtb.stage2_mmu.stage2_tlb.domain_faults            0                       # Number of TLB faults due to domain restrictions
system.cpu.dtb.stage2_mmu.stage2_tlb.flush_entries            0                       # Number of entries that have been flushed from TLB
system.cpu.dtb.stage2_mmu.stage2_tlb.flush_tlb            0                       # Number of times complete TLB was flushed
system.cpu.dtb.stage2_mmu.stage2_tlb.flush_tlb_asid            0                       # Number of times TLB was flushed by ASID
system.cpu.dtb.stage2_mmu.stage2_tlb.flush_tlb_mva            0                       # Number of times TLB was flushed by MVA
system.cpu.dtb.stage2_mmu.stage2_tlb.flush_tlb_mva_asid            0                       # Number of times TLB was flushed by MVA & ASID
system.cpu.dtb.stage2_mmu.stage2_tlb.hits            0                       # DTB hits
system.cpu.dtb.stage2_mmu.stage2_tlb.inst_accesses            0                       # ITB inst accesses
system.cpu.dtb.stage2_mmu.stage2_tlb.inst_hits            0                       # ITB inst hits
system.cpu.dtb.stage2_mmu.stage2_tlb.inst_misses            0                       # ITB inst misses
system.cpu.dtb.stage2_mmu.stage2_tlb.misses            0                       # DTB misses
system.cpu.dtb.stage2_mmu.stage2_tlb.perms_faults            0                       # Number of TLB faults due to permissions restrictions
system.cpu.dtb.stage2_mmu.stage2_tlb.prefetch_faults            0                       # Number of TLB faults due to prefetch
system.cpu.dtb.stage2_mmu.stage2_tlb.read_accesses            0                       # DTB read accesses
system.cpu.dtb.stage2_mmu.stage2_tlb.read_hits            0                       # DTB read hits
system.cpu.dtb.stage2_mmu.stage2_tlb.read_misses            0                       # DTB read misses
system.cpu.dtb.stage2_mmu.stage2_tlb.walker.walkRequestOrigin_Requested::Data            0                       # Table walker requests started/completed, data/inst
system.cpu.dtb.stage2_mmu.stage2_tlb.walker.walkRequestOrigin_Requested::Inst            0                       # Table walker requests started/completed, data/inst
system.cpu.dtb.stage2_mmu.stage2_tlb.walker.walkRequestOrigin_Requested::total            0                       # Table walker requests started/completed, data/inst
system.cpu.dtb.stage2_mmu.stage2_tlb.walker.walkRequestOrigin_Completed::Data            0                       # Table walker requests started/completed, data/inst
system.cpu.dtb.stage2_mmu.stage2_tlb.walker.walkRequestOrigin_Completed::Inst            0                       # Table walker requests started/completed, data/inst
system.cpu.dtb.stage2_mmu.stage2_tlb.walker.walkRequestOrigin_Completed::total            0                       # Table walker requests started/completed, data/inst
system.cpu.dtb.stage2_mmu.stage2_tlb.walker.walkRequestOrigin::total            0                       # Table walker requests started/completed, data/inst
system.cpu.dtb.stage2_mmu.stage2_tlb.walker.walks            0                       # Table walker walks requested
system.cpu.dtb.stage2_mmu.stage2_tlb.write_accesses            0                       # DTB write accesses
system.cpu.dtb.stage2_mmu.stage2_tlb.write_hits            0                       # DTB write hits
system.cpu.dtb.stage2_mmu.stage2_tlb.write_misses            0                       # DTB write misses
system.cpu.dtb.walker.walkRequestOrigin_Requested::Data            0                       # Table walker requests started/completed, data/inst
system.cpu.dtb.walker.walkRequestOrigin_Requested::Inst            0                       # Table walker requests started/completed, data/inst
system.cpu.dtb.walker.walkRequestOrigin_Requested::total            0                       # Table walker requests started/completed, data/inst
system.cpu.dtb.walker.walkRequestOrigin_Completed::Data            0                       # Table walker requests started/completed, data/inst
system.cpu.dtb.walker.walkRequestOrigin_Completed::Inst            0                       # Table walker requests started/completed, data/inst
system.cpu.dtb.walker.walkRequestOrigin_Completed::total            0                       # Table walker requests started/completed, data/inst
system.cpu.dtb.walker.walkRequestOrigin::total            0                       # Table walker requests started/completed, data/inst
system.cpu.dtb.walker.walks                         0                       # Table walker walks requested
system.cpu.dtb.write_accesses                       0                       # DTB write accesses
system.cpu.dtb.write_hits                           0                       # DTB write hits
system.cpu.dtb.write_misses                         0                       # DTB write misses
system.cpu.fetch.Branches                     2229241                       # Number of branches that fetch encountered
system.cpu.fetch.CacheLines                   1484472                       # Number of cache lines fetched
system.cpu.fetch.Cycles                       4140987                       # Number of cycles fetch has run and was not squashing or blocked
system.cpu.fetch.IcacheSquashes                  1189                       # Number of outstanding Icache misses that were squashed
system.cpu.fetch.IcacheWaitRetryStallCycles           51                       # Number of stall cycles due to full MSHR
system.cpu.fetch.Insts                       10057174                       # Number of instructions fetch has processed
system.cpu.fetch.MiscStallCycles                    9                       # Number of cycles fetch has spent waiting on interrupts, or bad addresses, or out of MSHRs
system.cpu.fetch.SquashCycles                    3198                       # Number of cycles fetch has spent squashing
system.cpu.fetch.branchRate                  0.076813                       # Number of branch fetches per cycle
system.cpu.fetch.icacheStallCycles           20806100                       # Number of cycles fetch is stalled on an Icache miss
system.cpu.fetch.predictedBranches            1054561                       # Number of branches that fetch has predicted taken
system.cpu.fetch.rate                        0.346539                       # Number of inst fetches per cycle
system.cpu.fetch.rateDist::samples           24948746                       # Number of instructions fetched each cycle (Total)
system.cpu.fetch.rateDist::mean              0.457045                       # Number of instructions fetched each cycle (Total)
system.cpu.fetch.rateDist::stdev             1.641211                       # Number of instructions fetched each cycle (Total)
system.cpu.fetch.rateDist::underflows               0      0.00%      0.00% # Number of instructions fetched each cycle (Total)
system.cpu.fetch.rateDist::0                 22693566     90.96%     90.96% # Number of instructions fetched each cycle (Total)
system.cpu.fetch.rateDist::1                   236196      0.95%     91.91% # Number of instructions fetched each cycle (Total)
system.cpu.fetch.rateDist::2                   203634      0.82%     92.72% # Number of instructions fetched each cycle (Total)
system.cpu.fetch.rateDist::3                   290904      1.17%     93.89% # Number of instructions fetched each cycle (Total)
system.cpu.fetch.rateDist::4                   375481      1.51%     95.39% # Number of instructions fetched each cycle (Total)
system.cpu.fetch.rateDist::5                   199882      0.80%     96.20% # Number of instructions fetched each cycle (Total)
system.cpu.fetch.rateDist::6                    55085      0.22%     96.42% # Number of instructions fetched each cycle (Total)
system.cpu.fetch.rateDist::7                    97314      0.39%     96.81% # Number of instructions fetched each cycle (Total)
system.cpu.fetch.rateDist::8                   796684      3.19%    100.00% # Number of instructions fetched each cycle (Total)
system.cpu.fetch.rateDist::overflows                0      0.00%    100.00% # Number of instructions fetched each cycle (Total)
system.cpu.fetch.rateDist::min_value                0                       # Number of instructions fetched each cycle (Total)
system.cpu.fetch.rateDist::max_value                8                       # Number of instructions fetched each cycle (Total)
system.cpu.fetch.rateDist::total             24948746                       # Number of instructions fetched each cycle (Total)
system.cpu.icache.prefetcher.num_hwpf_issued      2659468                       # number of hwpf issued
system.cpu.icache.prefetcher.pfBufferHit    154794209                       # number of redundant prefetches already in prefetch queue
system.cpu.icache.prefetcher.pfIdentified    165278473                       # number of prefetch candidates identified
system.cpu.icache.prefetcher.pfInCache              0                       # number of redundant prefetches already in cache/mshr dropped
system.cpu.icache.prefetcher.pfRemovedFull      3750605                       # number of prefetches dropped due to prefetch queue size
system.cpu.icache.prefetcher.pfSpanPage     606787188                       # number of prefetches that crossed the page
system.cpu.idleCycles                         4073021                       # Total number of cycles that the CPU has spent unscheduled due to idling
system.cpu.iew.branchMispredicts                  769                       # Number of branch mispredicts detected at execute
system.cpu.iew.exec_branches                  2224229                       # Number of branches executed
system.cpu.iew.exec_nop                          6093                       # number of nop insts executed
system.cpu.iew.exec_rate                     0.396232                       # Inst execution rate
system.cpu.iew.exec_refs                      3651554                       # number of memory reference insts executed
system.cpu.iew.exec_stores                    1808975                       # Number of stores executed
system.cpu.iew.exec_swp                             0                       # number of swp insts executed
system.cpu.iew.iewBlockCycles                    4220                       # Number of cycles IEW is blocking
system.cpu.iew.iewDispLoadInsts               1715430                       # Number of dispatched load instructions
system.cpu.iew.iewDispNonSpecInsts              12168                       # Number of dispatched non-speculative instructions
system.cpu.iew.iewDispSquashedInsts               208                       # Number of squashed instructions skipped by dispatch
system.cpu.iew.iewDispStoreInsts              1810230                       # Number of dispatched store instructions
system.cpu.iew.iewDispatchedInsts            11381668                       # Number of instructions dispatched to IQ
system.cpu.iew.iewExecLoadInsts               1842579                       # Number of load instructions executed
system.cpu.iew.iewExecSquashedInsts               576                       # Number of squashed instructions skipped in execute
system.cpu.iew.iewExecutedInsts              11499360                       # Number of executed instructions
system.cpu.iew.iewIQFullEvents                     12                       # Number of times the IQ has become full, causing a stall
system.cpu.iew.iewIdleCycles                        0                       # Number of cycles IEW is idle
system.cpu.iew.iewLSQFullEvents                338774                       # Number of times the LSQ has become full, causing a stall
system.cpu.iew.iewSquashCycles                   1344                       # Number of cycles IEW is squashing
system.cpu.iew.iewUnblockCycles                338786                       # Number of cycles IEW is unblocking
system.cpu.iew.lsq.thread0.blockedLoads             0                       # Number of blocked loads due to partial load-store forwarding
system.cpu.iew.lsq.thread0.cacheBlocked         13138                       # Number of times an access to memory failed due to the cache being blocked
system.cpu.iew.lsq.thread0.forwLoads            69166                       # Number of loads that had data forwarded from stores
system.cpu.iew.lsq.thread0.ignoredResponses            2                       # Number of memory responses ignored because the instruction is squashed
system.cpu.iew.lsq.thread0.invAddrLoads             0                       # Number of loads ignored due to an invalid address
system.cpu.iew.lsq.thread0.invAddrSwpfs             0                       # Number of software prefetches ignored due to an invalid address
system.cpu.iew.lsq.thread0.memOrderViolation           47                       # Number of memory ordering violations
system.cpu.iew.lsq.thread0.rescheduledLoads        65488                       # Number of loads that were rescheduled
system.cpu.iew.lsq.thread0.squashedLoads         4540                       # Number of loads squashed
system.cpu.iew.lsq.thread0.squashedStores        12958                       # Number of stores squashed
system.cpu.iew.memOrderViolationEvents             47                       # Number of memory order violations
system.cpu.iew.predictedNotTakenIncorrect          653                       # Number of branches that were predicted not taken incorrectly
system.cpu.iew.predictedTakenIncorrect            116                       # Number of branches that were predicted taken incorrectly
system.cpu.iew.wb_consumers                   9684376                       # num instructions consuming a value
system.cpu.iew.wb_count                      11367846                       # cumulative count of insts written-back
system.cpu.iew.wb_fanout                     0.542785                       # average fanout of values written-back
system.cpu.iew.wb_producers                   5256534                       # num instructions producing a value
system.cpu.iew.wb_rate                       0.391701                       # insts written-back per cycle
system.cpu.iew.wb_sent                       11370894                       # cumulative count of insts sent to commit
system.cpu.int_regfile_reads                 13081719                       # number of integer regfile reads
system.cpu.int_regfile_writes                 7573558                       # number of integer regfile writes
system.cpu.ipc                               0.344569                       # IPC: Instructions Per Cycle
system.cpu.ipc_total                         0.344569                       # IPC: Total IPC of All Threads
system.cpu.iq.FU_type_0::No_OpClass              8314      0.07%      0.07% # Type of FU issued
system.cpu.iq.FU_type_0::IntAlu               7702217     66.98%     67.05% # Type of FU issued
system.cpu.iq.FU_type_0::IntMult                60466      0.53%     67.57% # Type of FU issued
system.cpu.iq.FU_type_0::IntDiv                     3      0.00%     67.57% # Type of FU issued
system.cpu.iq.FU_type_0::FloatAdd                   0      0.00%     67.57% # Type of FU issued
system.cpu.iq.FU_type_0::FloatCmp                   0      0.00%     67.57% # Type of FU issued
system.cpu.iq.FU_type_0::FloatCvt                   0      0.00%     67.57% # Type of FU issued
system.cpu.iq.FU_type_0::FloatMult                  0      0.00%     67.57% # Type of FU issued
system.cpu.iq.FU_type_0::FloatMultAcc               0      0.00%     67.57% # Type of FU issued
system.cpu.iq.FU_type_0::FloatDiv                   0      0.00%     67.57% # Type of FU issued
system.cpu.iq.FU_type_0::FloatMisc                  0      0.00%     67.57% # Type of FU issued
system.cpu.iq.FU_type_0::FloatSqrt                  0      0.00%     67.57% # Type of FU issued
system.cpu.iq.FU_type_0::SimdAdd                18891      0.16%     67.74% # Type of FU issued
system.cpu.iq.FU_type_0::SimdAddAcc                 0      0.00%     67.74% # Type of FU issued
system.cpu.iq.FU_type_0::SimdAlu                18888      0.16%     67.90% # Type of FU issued
system.cpu.iq.FU_type_0::SimdCmp                16638      0.14%     68.05% # Type of FU issued
system.cpu.iq.FU_type_0::SimdCvt                    0      0.00%     68.05% # Type of FU issued
system.cpu.iq.FU_type_0::SimdMisc               22678      0.20%     68.24% # Type of FU issued
system.cpu.iq.FU_type_0::SimdMult                   0      0.00%     68.24% # Type of FU issued
system.cpu.iq.FU_type_0::SimdMultAcc                0      0.00%     68.24% # Type of FU issued
system.cpu.iq.FU_type_0::SimdShift                  0      0.00%     68.24% # Type of FU issued
system.cpu.iq.FU_type_0::SimdShiftAcc               0      0.00%     68.24% # Type of FU issued
system.cpu.iq.FU_type_0::SimdDiv                    0      0.00%     68.24% # Type of FU issued
system.cpu.iq.FU_type_0::SimdSqrt                   0      0.00%     68.24% # Type of FU issued
system.cpu.iq.FU_type_0::SimdFloatAdd               0      0.00%     68.24% # Type of FU issued
system.cpu.iq.FU_type_0::SimdFloatAlu               0      0.00%     68.24% # Type of FU issued
system.cpu.iq.FU_type_0::SimdFloatCmp               0      0.00%     68.24% # Type of FU issued
system.cpu.iq.FU_type_0::SimdFloatCvt               0      0.00%     68.24% # Type of FU issued
system.cpu.iq.FU_type_0::SimdFloatDiv               0      0.00%     68.24% # Type of FU issued
system.cpu.iq.FU_type_0::SimdFloatMisc              0      0.00%     68.24% # Type of FU issued
system.cpu.iq.FU_type_0::SimdFloatMult              0      0.00%     68.24% # Type of FU issued
system.cpu.iq.FU_type_0::SimdFloatMultAcc            0      0.00%     68.24% # Type of FU issued
system.cpu.iq.FU_type_0::SimdFloatSqrt              0      0.00%     68.24% # Type of FU issued
system.cpu.iq.FU_type_0::SimdReduceAdd              0      0.00%     68.24% # Type of FU issued
system.cpu.iq.FU_type_0::SimdReduceAlu              0      0.00%     68.24% # Type of FU issued
system.cpu.iq.FU_type_0::SimdReduceCmp              0      0.00%     68.24% # Type of FU issued
system.cpu.iq.FU_type_0::SimdFloatReduceAdd            0      0.00%     68.24% # Type of FU issued
system.cpu.iq.FU_type_0::SimdFloatReduceCmp            0      0.00%     68.24% # Type of FU issued
system.cpu.iq.FU_type_0::SimdAes                    0      0.00%     68.24% # Type of FU issued
system.cpu.iq.FU_type_0::SimdAesMix                 0      0.00%     68.24% # Type of FU issued
system.cpu.iq.FU_type_0::SimdSha1Hash               0      0.00%     68.24% # Type of FU issued
system.cpu.iq.FU_type_0::SimdSha1Hash2              0      0.00%     68.24% # Type of FU issued
system.cpu.iq.FU_type_0::SimdSha256Hash             0      0.00%     68.24% # Type of FU issued
system.cpu.iq.FU_type_0::SimdSha256Hash2            0      0.00%     68.24% # Type of FU issued
system.cpu.iq.FU_type_0::SimdShaSigma2              0      0.00%     68.24% # Type of FU issued
system.cpu.iq.FU_type_0::SimdShaSigma3              0      0.00%     68.24% # Type of FU issued
system.cpu.iq.FU_type_0::SimdPredAlu                0      0.00%     68.24% # Type of FU issued
system.cpu.iq.FU_type_0::MemRead              1842713     16.02%     84.27% # Type of FU issued
system.cpu.iq.FU_type_0::MemWrite             1809130     15.73%    100.00% # Type of FU issued
system.cpu.iq.FU_type_0::FloatMemRead               0      0.00%    100.00% # Type of FU issued
system.cpu.iq.FU_type_0::FloatMemWrite              0      0.00%    100.00% # Type of FU issued
system.cpu.iq.FU_type_0::IprAccess                  0      0.00%    100.00% # Type of FU issued
system.cpu.iq.FU_type_0::InstPrefetch               0      0.00%    100.00% # Type of FU issued
system.cpu.iq.FU_type_0::total               11499938                       # Type of FU issued
system.cpu.iq.fp_alu_accesses                       0                       # Number of floating point alu accesses
system.cpu.iq.fp_inst_queue_reads                   0                       # Number of floating instruction queue reads
system.cpu.iq.fp_inst_queue_wakeup_accesses            0                       # Number of floating instruction queue wakeup accesses
system.cpu.iq.fp_inst_queue_writes                  0                       # Number of floating instruction queue writes
system.cpu.iq.fu_busy_cnt                      199498                       # FU busy when requested
system.cpu.iq.fu_busy_rate                   0.017348                       # FU busy rate (busy events/executed inst)
system.cpu.iq.fu_full::No_OpClass                   0      0.00%      0.00% # attempts to use FU when none available
system.cpu.iq.fu_full::IntAlu                   24180     12.12%     12.12% # attempts to use FU when none available
system.cpu.iq.fu_full::IntMult                      0      0.00%     12.12% # attempts to use FU when none available
system.cpu.iq.fu_full::IntDiv                       0      0.00%     12.12% # attempts to use FU when none available
system.cpu.iq.fu_full::FloatAdd                     0      0.00%     12.12% # attempts to use FU when none available
system.cpu.iq.fu_full::FloatCmp                     0      0.00%     12.12% # attempts to use FU when none available
system.cpu.iq.fu_full::FloatCvt                     0      0.00%     12.12% # attempts to use FU when none available
system.cpu.iq.fu_full::FloatMult                    0      0.00%     12.12% # attempts to use FU when none available
system.cpu.iq.fu_full::FloatMultAcc                 0      0.00%     12.12% # attempts to use FU when none available
system.cpu.iq.fu_full::FloatDiv                     0      0.00%     12.12% # attempts to use FU when none available
system.cpu.iq.fu_full::FloatMisc                    0      0.00%     12.12% # attempts to use FU when none available
system.cpu.iq.fu_full::FloatSqrt                    0      0.00%     12.12% # attempts to use FU when none available
system.cpu.iq.fu_full::SimdAdd                      0      0.00%     12.12% # attempts to use FU when none available
system.cpu.iq.fu_full::SimdAddAcc                   0      0.00%     12.12% # attempts to use FU when none available
system.cpu.iq.fu_full::SimdAlu                      2      0.00%     12.12% # attempts to use FU when none available
system.cpu.iq.fu_full::SimdCmp                      2      0.00%     12.12% # attempts to use FU when none available
system.cpu.iq.fu_full::SimdCvt                      0      0.00%     12.12% # attempts to use FU when none available
system.cpu.iq.fu_full::SimdMisc                     0      0.00%     12.12% # attempts to use FU when none available
system.cpu.iq.fu_full::SimdMult                     0      0.00%     12.12% # attempts to use FU when none available
system.cpu.iq.fu_full::SimdMultAcc                  0      0.00%     12.12% # attempts to use FU when none available
system.cpu.iq.fu_full::SimdShift                    0      0.00%     12.12% # attempts to use FU when none available
system.cpu.iq.fu_full::SimdShiftAcc                 0      0.00%     12.12% # attempts to use FU when none available
system.cpu.iq.fu_full::SimdDiv                      0      0.00%     12.12% # attempts to use FU when none available
system.cpu.iq.fu_full::SimdSqrt                     0      0.00%     12.12% # attempts to use FU when none available
system.cpu.iq.fu_full::SimdFloatAdd                 0      0.00%     12.12% # attempts to use FU when none available
system.cpu.iq.fu_full::SimdFloatAlu                 0      0.00%     12.12% # attempts to use FU when none available
system.cpu.iq.fu_full::SimdFloatCmp                 0      0.00%     12.12% # attempts to use FU when none available
system.cpu.iq.fu_full::SimdFloatCvt                 0      0.00%     12.12% # attempts to use FU when none available
system.cpu.iq.fu_full::SimdFloatDiv                 0      0.00%     12.12% # attempts to use FU when none available
system.cpu.iq.fu_full::SimdFloatMisc                0      0.00%     12.12% # attempts to use FU when none available
system.cpu.iq.fu_full::SimdFloatMult                0      0.00%     12.12% # attempts to use FU when none available
system.cpu.iq.fu_full::SimdFloatMultAcc             0      0.00%     12.12% # attempts to use FU when none available
system.cpu.iq.fu_full::SimdFloatSqrt                0      0.00%     12.12% # attempts to use FU when none available
system.cpu.iq.fu_full::SimdReduceAdd                0      0.00%     12.12% # attempts to use FU when none available
system.cpu.iq.fu_full::SimdReduceAlu                0      0.00%     12.12% # attempts to use FU when none available
system.cpu.iq.fu_full::SimdReduceCmp                0      0.00%     12.12% # attempts to use FU when none available
system.cpu.iq.fu_full::SimdFloatReduceAdd            0      0.00%     12.12% # attempts to use FU when none available
system.cpu.iq.fu_full::SimdFloatReduceCmp            0      0.00%     12.12% # attempts to use FU when none available
system.cpu.iq.fu_full::SimdAes                      0      0.00%     12.12% # attempts to use FU when none available
system.cpu.iq.fu_full::SimdAesMix                   0      0.00%     12.12% # attempts to use FU when none available
system.cpu.iq.fu_full::SimdSha1Hash                 0      0.00%     12.12% # attempts to use FU when none available
system.cpu.iq.fu_full::SimdSha1Hash2                0      0.00%     12.12% # attempts to use FU when none available
system.cpu.iq.fu_full::SimdSha256Hash               0      0.00%     12.12% # attempts to use FU when none available
system.cpu.iq.fu_full::SimdSha256Hash2              0      0.00%     12.12% # attempts to use FU when none available
system.cpu.iq.fu_full::SimdShaSigma2                0      0.00%     12.12% # attempts to use FU when none available
system.cpu.iq.fu_full::SimdShaSigma3                0      0.00%     12.12% # attempts to use FU when none available
system.cpu.iq.fu_full::SimdPredAlu                  0      0.00%     12.12% # attempts to use FU when none available
system.cpu.iq.fu_full::MemRead                  46877     23.50%     35.62% # attempts to use FU when none available
system.cpu.iq.fu_full::MemWrite                128437     64.38%    100.00% # attempts to use FU when none available
system.cpu.iq.fu_full::FloatMemRead                 0      0.00%    100.00% # attempts to use FU when none available
system.cpu.iq.fu_full::FloatMemWrite                0      0.00%    100.00% # attempts to use FU when none available
system.cpu.iq.fu_full::IprAccess                    0      0.00%    100.00% # attempts to use FU when none available
system.cpu.iq.fu_full::InstPrefetch                 0      0.00%    100.00% # attempts to use FU when none available
system.cpu.iq.int_alu_accesses               11476337                       # Number of integer alu accesses
system.cpu.iq.int_inst_queue_reads           47726170                       # Number of integer instruction queue reads
system.cpu.iq.int_inst_queue_wakeup_accesses     11168985                       # Number of integer instruction queue wakeup accesses
system.cpu.iq.int_inst_queue_writes          11213099                       # Number of integer instruction queue writes
system.cpu.iq.iqInstsAdded                   11363407                       # Number of instructions added to the IQ (excludes non-spec)
system.cpu.iq.iqInstsIssued                  11499938                       # Number of instructions issued
system.cpu.iq.iqNonSpecInstsAdded               12168                       # Number of non-speculative instructions added to the IQ
system.cpu.iq.iqSquashedInstsExamined           36796                       # Number of squashed instructions iterated over during squash; mainly for profiling
system.cpu.iq.iqSquashedInstsIssued                90                       # Number of squashed instructions issued
system.cpu.iq.iqSquashedNonSpecRemoved             26                       # Number of squashed non-spec instructions that were removed
system.cpu.iq.iqSquashedOperandsExamined        13086                       # Number of squashed operands that are examined and possibly removed from graph
system.cpu.iq.issued_per_cycle::samples      24948746                       # Number of insts issued each cycle
system.cpu.iq.issued_per_cycle::mean         0.460943                       # Number of insts issued each cycle
system.cpu.iq.issued_per_cycle::stdev        1.208845                       # Number of insts issued each cycle
system.cpu.iq.issued_per_cycle::underflows            0      0.00%      0.00% # Number of insts issued each cycle
system.cpu.iq.issued_per_cycle::0            20365733     81.63%     81.63% # Number of insts issued each cycle
system.cpu.iq.issued_per_cycle::1             1743629      6.99%     88.62% # Number of insts issued each cycle
system.cpu.iq.issued_per_cycle::2             1069381      4.29%     92.91% # Number of insts issued each cycle
system.cpu.iq.issued_per_cycle::3              616319      2.47%     95.38% # Number of insts issued each cycle
system.cpu.iq.issued_per_cycle::4              499841      2.00%     97.38% # Number of insts issued each cycle
system.cpu.iq.issued_per_cycle::5              286095      1.15%     98.53% # Number of insts issued each cycle
system.cpu.iq.issued_per_cycle::6              276655      1.11%     99.63% # Number of insts issued each cycle
system.cpu.iq.issued_per_cycle::7               49923      0.20%     99.83% # Number of insts issued each cycle
system.cpu.iq.issued_per_cycle::8               41170      0.17%    100.00% # Number of insts issued each cycle
system.cpu.iq.issued_per_cycle::overflows            0      0.00%    100.00% # Number of insts issued each cycle
system.cpu.iq.issued_per_cycle::min_value            0                       # Number of insts issued each cycle
system.cpu.iq.issued_per_cycle::max_value            8                       # Number of insts issued each cycle
system.cpu.iq.issued_per_cycle::total        24948746                       # Number of insts issued each cycle
system.cpu.iq.rate                           0.396252                       # Inst issue rate
system.cpu.iq.vec_alu_accesses                 214785                       # Number of vector alu accesses
system.cpu.iq.vec_inst_queue_reads             422038                       # Number of vector instruction queue reads
system.cpu.iq.vec_inst_queue_wakeup_accesses       198861                       # Number of vector instruction queue wakeup accesses
system.cpu.iq.vec_inst_queue_writes            199319                       # Number of vector instruction queue writes
system.cpu.itb.accesses                             0                       # DTB accesses
system.cpu.itb.align_faults                         0                       # Number of TLB faults due to alignment restrictions
system.cpu.itb.domain_faults                        0                       # Number of TLB faults due to domain restrictions
system.cpu.itb.flush_entries                        0                       # Number of entries that have been flushed from TLB
system.cpu.itb.flush_tlb                            0                       # Number of times complete TLB was flushed
system.cpu.itb.flush_tlb_asid                       0                       # Number of times TLB was flushed by ASID
system.cpu.itb.flush_tlb_mva                        0                       # Number of times TLB was flushed by MVA
system.cpu.itb.flush_tlb_mva_asid                   0                       # Number of times TLB was flushed by MVA & ASID
system.cpu.itb.hits                                 0                       # DTB hits
system.cpu.itb.inst_accesses                        0                       # ITB inst accesses
system.cpu.itb.inst_hits                            0                       # ITB inst hits
system.cpu.itb.inst_misses                          0                       # ITB inst misses
system.cpu.itb.misses                               0                       # DTB misses
system.cpu.itb.perms_faults                         0                       # Number of TLB faults due to permissions restrictions
system.cpu.itb.prefetch_faults                      0                       # Number of TLB faults due to prefetch
system.cpu.itb.read_accesses                        0                       # DTB read accesses
system.cpu.itb.read_hits                            0                       # DTB read hits
system.cpu.itb.read_misses                          0                       # DTB read misses
system.cpu.itb.stage2_mmu.stage2_tlb.accesses            0                       # DTB accesses
system.cpu.itb.stage2_mmu.stage2_tlb.align_faults            0                       # Number of TLB faults due to alignment restrictions
system.cpu.itb.stage2_mmu.stage2_tlb.domain_faults            0                       # Number of TLB faults due to domain restrictions
system.cpu.itb.stage2_mmu.stage2_tlb.flush_entries            0                       # Number of entries that have been flushed from TLB
system.cpu.itb.stage2_mmu.stage2_tlb.flush_tlb            0                       # Number of times complete TLB was flushed
system.cpu.itb.stage2_mmu.stage2_tlb.flush_tlb_asid            0                       # Number of times TLB was flushed by ASID
system.cpu.itb.stage2_mmu.stage2_tlb.flush_tlb_mva            0                       # Number of times TLB was flushed by MVA
system.cpu.itb.stage2_mmu.stage2_tlb.flush_tlb_mva_asid            0                       # Number of times TLB was flushed by MVA & ASID
system.cpu.itb.stage2_mmu.stage2_tlb.hits            0                       # DTB hits
system.cpu.itb.stage2_mmu.stage2_tlb.inst_accesses            0                       # ITB inst accesses
system.cpu.itb.stage2_mmu.stage2_tlb.inst_hits            0                       # ITB inst hits
system.cpu.itb.stage2_mmu.stage2_tlb.inst_misses            0                       # ITB inst misses
system.cpu.itb.stage2_mmu.stage2_tlb.misses            0                       # DTB misses
system.cpu.itb.stage2_mmu.stage2_tlb.perms_faults            0                       # Number of TLB faults due to permissions restrictions
system.cpu.itb.stage2_mmu.stage2_tlb.prefetch_faults            0                       # Number of TLB faults due to prefetch
system.cpu.itb.stage2_mmu.stage2_tlb.read_accesses            0                       # DTB read accesses
system.cpu.itb.stage2_mmu.stage2_tlb.read_hits            0                       # DTB read hits
system.cpu.itb.stage2_mmu.stage2_tlb.read_misses            0                       # DTB read misses
system.cpu.itb.stage2_mmu.stage2_tlb.walker.walkRequestOrigin_Requested::Data            0                       # Table walker requests started/completed, data/inst
system.cpu.itb.stage2_mmu.stage2_tlb.walker.walkRequestOrigin_Requested::Inst            0                       # Table walker requests started/completed, data/inst
system.cpu.itb.stage2_mmu.stage2_tlb.walker.walkRequestOrigin_Requested::total            0                       # Table walker requests started/completed, data/inst
system.cpu.itb.stage2_mmu.stage2_tlb.walker.walkRequestOrigin_Completed::Data            0                       # Table walker requests started/completed, data/inst
system.cpu.itb.stage2_mmu.stage2_tlb.walker.walkRequestOrigin_Completed::Inst            0                       # Table walker requests started/completed, data/inst
system.cpu.itb.stage2_mmu.stage2_tlb.walker.walkRequestOrigin_Completed::total            0                       # Table walker requests started/completed, data/inst
system.cpu.itb.stage2_mmu.stage2_tlb.walker.walkRequestOrigin::total            0                       # Table walker requests started/completed, data/inst
system.cpu.itb.stage2_mmu.stage2_tlb.walker.walks            0                       # Table walker walks requested
system.cpu.itb.stage2_mmu.stage2_tlb.write_accesses            0                       # DTB write accesses
system.cpu.itb.stage2_mmu.stage2_tlb.write_hits            0                       # DTB write hits
system.cpu.itb.stage2_mmu.stage2_tlb.write_misses            0                       # DTB write misses
system.cpu.itb.walker.walkRequestOrigin_Requested::Data            0                       # Table walker requests started/completed, data/inst
system.cpu.itb.walker.walkRequestOrigin_Requested::Inst            0                       # Table walker requests started/completed, data/inst
system.cpu.itb.walker.walkRequestOrigin_Requested::total            0                       # Table walker requests started/completed, data/inst
system.cpu.itb.walker.walkRequestOrigin_Completed::Data            0                       # Table walker requests started/completed, data/inst
system.cpu.itb.walker.walkRequestOrigin_Completed::Inst            0                       # Table walker requests started/completed, data/inst
system.cpu.itb.walker.walkRequestOrigin_Completed::total            0                       # Table walker requests started/completed, data/inst
system.cpu.itb.walker.walkRequestOrigin::total            0                       # Table walker requests started/completed, data/inst
system.cpu.itb.walker.walks                         0                       # Table walker walks requested
system.cpu.itb.write_accesses                       0                       # DTB write accesses
system.cpu.itb.write_hits                           0                       # DTB write hits
system.cpu.itb.write_misses                         0                       # DTB write misses
system.cpu.memDep0.conflictingLoads             47346                       # Number of conflicting loads.
system.cpu.memDep0.conflictingStores            35289                       # Number of conflicting stores.
system.cpu.memDep0.insertedLoads              1715430                       # Number of loads inserted to the mem dependence unit.
system.cpu.memDep0.insertedStores             1810230                       # Number of stores inserted to the mem dependence unit.
system.cpu.misc_regfile_reads                 7777708                       # number of misc regfile reads
system.cpu.misc_regfile_writes                  48481                       # number of misc regfile writes
system.cpu.numCycles                         29021767                       # number of cpu cycles simulated
system.cpu.numWorkItemsCompleted                    0                       # number of work items this cpu completed
system.cpu.numWorkItemsStarted                      0                       # number of work items this cpu started
system.cpu.rename.BlockCycles                  335714                       # Number of cycles rename is blocking
system.cpu.rename.CommittedMaps              12114552                       # Number of HB maps that are committed
system.cpu.rename.IQFullEvents                     73                       # Number of times rename has blocked due to IQ full
system.cpu.rename.IdleCycles                 20029653                       # Number of cycles rename is idle
system.cpu.rename.LQFullEvents                      9                       # Number of times rename has blocked due to LQ full
system.cpu.rename.ROBFullEvents                     5                       # Number of times rename has blocked due to ROB full
system.cpu.rename.RenameLookups              18365585                       # Number of register rename lookups that rename has made
system.cpu.rename.RenamedInsts               11382902                       # Number of instructions processed by rename
system.cpu.rename.RenamedOperands            12143369                       # Number of destination operands rename has renamed
system.cpu.rename.RunCycles                   2209443                       # Number of cycles rename is running
system.cpu.rename.SQFullEvents                  94364                       # Number of times rename has blocked due to SQ full
system.cpu.rename.SquashCycles                   1344                       # Number of cycles rename is squashing
system.cpu.rename.UnblockCycles                142839                       # Number of cycles rename is unblocking
system.cpu.rename.UndoneMaps                    28795                       # Number of HB maps that are undone due to squashing
system.cpu.rename.int_rename_lookups         12960257                       # Number of integer rename lookups
system.cpu.rename.serializeStallCycles        2229753                       # count of cycles rename stalled for serializing inst
system.cpu.rename.serializingInsts              36768                       # count of serializing insts renamed
system.cpu.rename.skidInsts                    238348                       # count of insts added to the skid buffer
system.cpu.rename.tempSerializingInsts          12168                       # count of temporary serializing insts renamed
system.cpu.rename.vec_rename_lookups           241459                       # Number of vector rename lookups
system.cpu.rob.rob_reads                     36026384                       # The number of ROB reads
system.cpu.rob.rob_writes                    22767218                       # The number of ROB writes
system.cpu.timesIdled                          749016                       # Number of times that the entire CPU went into an idle state and unscheduled itself
system.cpu.vec_regfile_reads                   241159                       # number of vector regfile reads
system.cpu.vec_regfile_writes                   99783                       # number of vector regfile writes
system.cpu.workload.numSyscalls                    21                       # Number of system calls
system.membus.snoop_filter.hit_multi_requests            0                       # Number of requests hitting in the snoop filter with multiple (>1) holders of the requested data.
system.membus.snoop_filter.hit_multi_snoops            0                       # Number of snoops hitting in the snoop filter with multiple (>1) holders of the requested data.
system.membus.snoop_filter.hit_single_requests         5835                       # Number of requests hitting in the snoop filter with a single holder of the requested data.
system.membus.snoop_filter.hit_single_snoops            0                       # Number of snoops hitting in the snoop filter with a single holder of the requested data.
system.membus.snoop_filter.tot_requests         44478                       # Total number of requests made to the snoop filter.
system.membus.snoop_filter.tot_snoops               0                       # Total number of snoops made to the snoop filter.
system.tol2bus.snoop_filter.hit_multi_requests          203                       # Number of requests hitting in the snoop filter with multiple (>1) holders of the requested data.
system.tol2bus.snoop_filter.hit_multi_snoops            0                       # Number of snoops hitting in the snoop filter with multiple (>1) holders of the requested data.
system.tol2bus.snoop_filter.hit_single_requests      2783730                       # Number of requests hitting in the snoop filter with a single holder of the requested data.
system.tol2bus.snoop_filter.hit_single_snoops           38                       # Number of snoops hitting in the snoop filter with a single holder of the requested data.
system.tol2bus.snoop_filter.tot_requests      5568502                       # Total number of requests made to the snoop filter.
system.tol2bus.snoop_filter.tot_snoops             38                       # Total number of snoops made to the snoop filter.
system.membus.trans_dist::ReadResp               5375                       # Transaction distribution
system.membus.trans_dist::WritebackDirty         5436                       # Transaction distribution
system.membus.trans_dist::CleanEvict              399                       # Transaction distribution
system.membus.trans_dist::ReadExReq             33253                       # Transaction distribution
system.membus.trans_dist::ReadExResp            33253                       # Transaction distribution
system.membus.trans_dist::ReadSharedReq          5375                       # Transaction distribution
system.membus.trans_dist::InvalidateReq            15                       # Transaction distribution
system.membus.pkt_count_system.l2.mem_side::system.mem_ctrls.port        83106                       # Packet count per connected master and slave (bytes)
system.membus.pkt_count::total                  83106                       # Packet count per connected master and slave (bytes)
system.membus.pkt_size_system.l2.mem_side::system.mem_ctrls.port      2820096                       # Cumulative packet size per connected master and slave (bytes)
system.membus.pkt_size::total                 2820096                       # Cumulative packet size per connected master and slave (bytes)
system.membus.snoops                                0                       # Total snoops (count)
system.membus.snoopTraffic                          0                       # Total snoop traffic (bytes)
system.membus.snoop_fanout::samples             38643                       # Request fanout histogram
system.membus.snoop_fanout::mean                    0                       # Request fanout histogram
system.membus.snoop_fanout::stdev                   0                       # Request fanout histogram
system.membus.snoop_fanout::underflows              0      0.00%      0.00% # Request fanout histogram
system.membus.snoop_fanout::0                   38643    100.00%    100.00% # Request fanout histogram
system.membus.snoop_fanout::1                       0      0.00%    100.00% # Request fanout histogram
system.membus.snoop_fanout::overflows               0      0.00%    100.00% # Request fanout histogram
system.membus.snoop_fanout::min_value               0                       # Request fanout histogram
system.membus.snoop_fanout::max_value               0                       # Request fanout histogram
system.membus.snoop_fanout::total               38643                       # Request fanout histogram
system.membus.reqLayer0.occupancy            73017500                       # Layer occupancy (ticks)
system.membus.reqLayer0.utilization               0.5                       # Layer utilization (%)
system.membus.respLayer1.occupancy          199757500                       # Layer occupancy (ticks)
system.membus.respLayer1.utilization              1.4                       # Layer utilization (%)
system.membus.power_state.pwrStateResidencyTicks::UNDEFINED  14510883000                       # Cumulative time (in ticks) in various power states
system.tol2bus.trans_dist::ReadResp           2751499                       # Transaction distribution
system.tol2bus.trans_dist::WritebackDirty        42450                       # Transaction distribution
system.tol2bus.trans_dist::WritebackClean      2745404                       # Transaction distribution
system.tol2bus.trans_dist::CleanEvict            1749                       # Transaction distribution
system.tol2bus.trans_dist::ReadExReq            33256                       # Transaction distribution
system.tol2bus.trans_dist::ReadExResp           33256                       # Transaction distribution
system.tol2bus.trans_dist::ReadCleanReq       2745422                       # Transaction distribution
system.tol2bus.trans_dist::ReadSharedReq         6079                       # Transaction distribution
system.tol2bus.trans_dist::InvalidateReq           15                       # Transaction distribution
system.tol2bus.trans_dist::InvalidateResp           15                       # Transaction distribution
system.tol2bus.pkt_count_system.cpu.icache.mem_side::system.l2.cpu_side      8236246                       # Packet count per connected master and slave (bytes)
system.tol2bus.pkt_count_system.cpu.dcache.mem_side::system.l2.cpu_side       117026                       # Packet count per connected master and slave (bytes)
system.tol2bus.pkt_count::total               8353272                       # Packet count per connected master and slave (bytes)
system.tol2bus.pkt_size_system.cpu.icache.mem_side::system.l2.cpu_side    351412736                       # Cumulative packet size per connected master and slave (bytes)
system.tol2bus.pkt_size_system.cpu.dcache.mem_side::system.l2.cpu_side      4886336                       # Cumulative packet size per connected master and slave (bytes)
system.tol2bus.pkt_size::total              356299072                       # Cumulative packet size per connected master and slave (bytes)
system.tol2bus.snoops                            5873                       # Total snoops (count)
system.tol2bus.snoopTraffic                    347904                       # Total snoop traffic (bytes)
system.tol2bus.snoop_fanout::samples          2790645                       # Request fanout histogram
system.tol2bus.snoop_fanout::mean            0.000086                       # Request fanout histogram
system.tol2bus.snoop_fanout::stdev           0.009293                       # Request fanout histogram
system.tol2bus.snoop_fanout::underflows             0      0.00%      0.00% # Request fanout histogram
system.tol2bus.snoop_fanout::0                2790404     99.99%     99.99% # Request fanout histogram
system.tol2bus.snoop_fanout::1                    241      0.01%    100.00% # Request fanout histogram
system.tol2bus.snoop_fanout::2                      0      0.00%    100.00% # Request fanout histogram
system.tol2bus.snoop_fanout::overflows              0      0.00%    100.00% # Request fanout histogram
system.tol2bus.snoop_fanout::min_value              0                       # Request fanout histogram
system.tol2bus.snoop_fanout::max_value              1                       # Request fanout histogram
system.tol2bus.snoop_fanout::total            2790645                       # Request fanout histogram
system.tol2bus.reqLayer0.occupancy         5891986316                       # Layer occupancy (ticks)
system.tol2bus.reqLayer0.utilization             40.6                       # Layer utilization (%)
system.tol2bus.respLayer1.occupancy          60781949                       # Layer occupancy (ticks)
system.tol2bus.respLayer1.utilization             0.4                       # Layer utilization (%)
system.tol2bus.respLayer0.occupancy        4118132495                       # Layer occupancy (ticks)
system.tol2bus.respLayer0.utilization            28.4                       # Layer utilization (%)
system.tol2bus.power_state.pwrStateResidencyTicks::UNDEFINED  14510883000                       # Cumulative time (in ticks) in various power states
system.voltage_domain.voltage                       1                       # Voltage in Volts
system.clk_domain.clock                          1000                       # Clock period in ticks
system.l2.demand_hits::.cpu.inst               849589                       # number of demand (read+write) hits
system.l2.demand_hits::.cpu.data                 1221                       # number of demand (read+write) hits
system.l2.demand_hits::.cpu.icache.prefetcher      1895319                       # number of demand (read+write) hits
system.l2.demand_hits::total                  2746129                       # number of demand (read+write) hits
system.l2.overall_hits::.cpu.inst              849589                       # number of overall hits
system.l2.overall_hits::.cpu.data                1221                       # number of overall hits
system.l2.overall_hits::.cpu.icache.prefetcher      1895319                       # number of overall hits
system.l2.overall_hits::total                 2746129                       # number of overall hits
system.l2.demand_misses::.cpu.inst                514                       # number of demand (read+write) misses
system.l2.demand_misses::.cpu.data              38114                       # number of demand (read+write) misses
system.l2.demand_misses::total                  38628                       # number of demand (read+write) misses
system.l2.overall_misses::.cpu.inst               514                       # number of overall misses
system.l2.overall_misses::.cpu.data             38114                       # number of overall misses
system.l2.overall_misses::total                 38628                       # number of overall misses
system.l2.demand_miss_latency::.cpu.inst     40297000                       # number of demand (read+write) miss cycles
system.l2.demand_miss_latency::.cpu.data   3128870500                       # number of demand (read+write) miss cycles
system.l2.demand_miss_latency::total       3169167500                       # number of demand (read+write) miss cycles
system.l2.overall_miss_latency::.cpu.inst     40297000                       # number of overall miss cycles
system.l2.overall_miss_latency::.cpu.data   3128870500                       # number of overall miss cycles
system.l2.overall_miss_latency::total      3169167500                       # number of overall miss cycles
system.l2.demand_accesses::.cpu.inst           850103                       # number of demand (read+write) accesses
system.l2.demand_accesses::.cpu.data            39335                       # number of demand (read+write) accesses
system.l2.demand_accesses::.cpu.icache.prefetcher      1895319                       # number of demand (read+write) accesses
system.l2.demand_accesses::total              2784757                       # number of demand (read+write) accesses
system.l2.overall_accesses::.cpu.inst          850103                       # number of overall (read+write) accesses
system.l2.overall_accesses::.cpu.data           39335                       # number of overall (read+write) accesses
system.l2.overall_accesses::.cpu.icache.prefetcher      1895319                       # number of overall (read+write) accesses
system.l2.overall_accesses::total             2784757                       # number of overall (read+write) accesses
system.l2.demand_miss_rate::.cpu.inst        0.000605                       # miss rate for demand accesses
system.l2.demand_miss_rate::.cpu.data        0.968959                       # miss rate for demand accesses
system.l2.demand_miss_rate::total            0.013871                       # miss rate for demand accesses
system.l2.overall_miss_rate::.cpu.inst       0.000605                       # miss rate for overall accesses
system.l2.overall_miss_rate::.cpu.data       0.968959                       # miss rate for overall accesses
system.l2.overall_miss_rate::total           0.013871                       # miss rate for overall accesses
system.l2.demand_avg_miss_latency::.cpu.inst 78398.832685                       # average overall miss latency
system.l2.demand_avg_miss_latency::.cpu.data 82092.420108                       # average overall miss latency
system.l2.demand_avg_miss_latency::total 82043.271720                       # average overall miss latency
system.l2.overall_avg_miss_latency::.cpu.inst 78398.832685                       # average overall miss latency
system.l2.overall_avg_miss_latency::.cpu.data 82092.420108                       # average overall miss latency
system.l2.overall_avg_miss_latency::total 82043.271720                       # average overall miss latency
system.l2.blocked_cycles::no_mshrs                  0                       # number of cycles access was blocked
system.l2.blocked_cycles::no_targets                0                       # number of cycles access was blocked
system.l2.blocked::no_mshrs                         0                       # number of cycles access was blocked
system.l2.blocked::no_targets                       0                       # number of cycles access was blocked
system.l2.avg_blocked_cycles::no_mshrs            nan                       # average number of cycles each access was blocked
system.l2.avg_blocked_cycles::no_targets          nan                       # average number of cycles each access was blocked
system.l2.writebacks::.writebacks                5436                       # number of writebacks
system.l2.writebacks::total                      5436                       # number of writebacks
system.l2.demand_mshr_misses::.cpu.inst           514                       # number of demand (read+write) MSHR misses
system.l2.demand_mshr_misses::.cpu.data         38114                       # number of demand (read+write) MSHR misses
system.l2.demand_mshr_misses::total             38628                       # number of demand (read+write) MSHR misses
system.l2.overall_mshr_misses::.cpu.inst          514                       # number of overall MSHR misses
system.l2.overall_mshr_misses::.cpu.data        38114                       # number of overall MSHR misses
system.l2.overall_mshr_misses::total            38628                       # number of overall MSHR misses
system.l2.demand_mshr_miss_latency::.cpu.inst     35157000                       # number of demand (read+write) MSHR miss cycles
system.l2.demand_mshr_miss_latency::.cpu.data   2747730500                       # number of demand (read+write) MSHR miss cycles
system.l2.demand_mshr_miss_latency::total   2782887500                       # number of demand (read+write) MSHR miss cycles
system.l2.overall_mshr_miss_latency::.cpu.inst     35157000                       # number of overall MSHR miss cycles
system.l2.overall_mshr_miss_latency::.cpu.data   2747730500                       # number of overall MSHR miss cycles
system.l2.overall_mshr_miss_latency::total   2782887500                       # number of overall MSHR miss cycles
system.l2.demand_mshr_miss_rate::.cpu.inst     0.000605                       # mshr miss rate for demand accesses
system.l2.demand_mshr_miss_rate::.cpu.data     0.968959                       # mshr miss rate for demand accesses
system.l2.demand_mshr_miss_rate::total       0.013871                       # mshr miss rate for demand accesses
system.l2.overall_mshr_miss_rate::.cpu.inst     0.000605                       # mshr miss rate for overall accesses
system.l2.overall_mshr_miss_rate::.cpu.data     0.968959                       # mshr miss rate for overall accesses
system.l2.overall_mshr_miss_rate::total      0.013871                       # mshr miss rate for overall accesses
system.l2.demand_avg_mshr_miss_latency::.cpu.inst 68398.832685                       # average overall mshr miss latency
system.l2.demand_avg_mshr_miss_latency::.cpu.data 72092.420108                       # average overall mshr miss latency
system.l2.demand_avg_mshr_miss_latency::total 72043.271720                       # average overall mshr miss latency
system.l2.overall_avg_mshr_miss_latency::.cpu.inst 68398.832685                       # average overall mshr miss latency
system.l2.overall_avg_mshr_miss_latency::.cpu.data 72092.420108                       # average overall mshr miss latency
system.l2.overall_avg_mshr_miss_latency::total 72043.271720                       # average overall mshr miss latency
system.l2.replacements                           5873                       # number of replacements
system.l2.WritebackDirty_hits::.writebacks        37014                       # number of WritebackDirty hits
system.l2.WritebackDirty_hits::total            37014                       # number of WritebackDirty hits
system.l2.WritebackDirty_accesses::.writebacks        37014                       # number of WritebackDirty accesses(hits+misses)
system.l2.WritebackDirty_accesses::total        37014                       # number of WritebackDirty accesses(hits+misses)
system.l2.WritebackClean_hits::.writebacks      2745201                       # number of WritebackClean hits
system.l2.WritebackClean_hits::total          2745201                       # number of WritebackClean hits
system.l2.WritebackClean_accesses::.writebacks      2745201                       # number of WritebackClean accesses(hits+misses)
system.l2.WritebackClean_accesses::total      2745201                       # number of WritebackClean accesses(hits+misses)
system.l2.ReadExReq_hits::.cpu.data                 3                       # number of ReadExReq hits
system.l2.ReadExReq_hits::total                     3                       # number of ReadExReq hits
system.l2.ReadExReq_misses::.cpu.data           33253                       # number of ReadExReq misses
system.l2.ReadExReq_misses::total               33253                       # number of ReadExReq misses
system.l2.ReadExReq_miss_latency::.cpu.data   2764090500                       # number of ReadExReq miss cycles
system.l2.ReadExReq_miss_latency::total    2764090500                       # number of ReadExReq miss cycles
system.l2.ReadExReq_accesses::.cpu.data         33256                       # number of ReadExReq accesses(hits+misses)
system.l2.ReadExReq_accesses::total             33256                       # number of ReadExReq accesses(hits+misses)
system.l2.ReadExReq_miss_rate::.cpu.data     0.999910                       # miss rate for ReadExReq accesses
system.l2.ReadExReq_miss_rate::total         0.999910                       # miss rate for ReadExReq accesses
system.l2.ReadExReq_avg_miss_latency::.cpu.data 83123.041530                       # average ReadExReq miss latency
system.l2.ReadExReq_avg_miss_latency::total 83123.041530                       # average ReadExReq miss latency
system.l2.ReadExReq_mshr_misses::.cpu.data        33253                       # number of ReadExReq MSHR misses
system.l2.ReadExReq_mshr_misses::total          33253                       # number of ReadExReq MSHR misses
system.l2.ReadExReq_mshr_miss_latency::.cpu.data   2431560500                       # number of ReadExReq MSHR miss cycles
system.l2.ReadExReq_mshr_miss_latency::total   2431560500                       # number of ReadExReq MSHR miss cycles
system.l2.ReadExReq_mshr_miss_rate::.cpu.data     0.999910                       # mshr miss rate for ReadExReq accesses
system.l2.ReadExReq_mshr_miss_rate::total     0.999910                       # mshr miss rate for ReadExReq accesses
system.l2.ReadExReq_avg_mshr_miss_latency::.cpu.data 73123.041530                       # average ReadExReq mshr miss latency
system.l2.ReadExReq_avg_mshr_miss_latency::total 73123.041530                       # average ReadExReq mshr miss latency
system.l2.ReadCleanReq_hits::.cpu.inst         849589                       # number of ReadCleanReq hits
system.l2.ReadCleanReq_hits::.cpu.icache.prefetcher      1895319                       # number of ReadCleanReq hits
system.l2.ReadCleanReq_hits::total            2744908                       # number of ReadCleanReq hits
system.l2.ReadCleanReq_misses::.cpu.inst          514                       # number of ReadCleanReq misses
system.l2.ReadCleanReq_misses::total              514                       # number of ReadCleanReq misses
system.l2.ReadCleanReq_miss_latency::.cpu.inst     40297000                       # number of ReadCleanReq miss cycles
[...]
system.cpu.dcache.demand_accesses::total      3432300                       # number of demand (read+write) accesses
system.cpu.dcache.overall_accesses::.cpu.data      3439117                       # number of overall (read+write) accesses
system.cpu.dcache.overall_accesses::total      3439117                       # number of overall (read+write) accesses
system.cpu.dcache.demand_miss_rate::.cpu.data     0.021925                       # miss rate for demand accesses
system.cpu.dcache.demand_miss_rate::total     0.021925                       # miss rate for demand accesses
system.cpu.dcache.overall_miss_rate::.cpu.data     0.021906                       # miss rate for overall accesses
system.cpu.dcache.overall_miss_rate::total     0.021906                       # miss rate for overall accesses
system.cpu.dcache.demand_avg_miss_latency::.cpu.data 70381.501329                       # average overall miss latency
system.cpu.dcache.demand_avg_miss_latency::total 70381.501329                       # average overall miss latency
system.cpu.dcache.overall_avg_miss_latency::.cpu.data 70300.226151                       # average overall miss latency
system.cpu.dcache.overall_avg_miss_latency::total 70300.226151                       # average overall miss latency
system.cpu.dcache.blocked_cycles::no_mshrs       922713                       # number of cycles access was blocked
system.cpu.dcache.blocked_cycles::no_targets            0                       # number of cycles access was blocked
system.cpu.dcache.blocked::no_mshrs             13158                       # number of cycles access was blocked
system.cpu.dcache.blocked::no_targets               0                       # number of cycles access was blocked
system.cpu.dcache.avg_blocked_cycles::no_mshrs    70.125627                       # average number of cycles each access was blocked
system.cpu.dcache.avg_blocked_cycles::no_targets          nan                       # average number of cycles each access was blocked
system.cpu.dcache.writebacks::.writebacks        37014                       # number of writebacks
system.cpu.dcache.writebacks::total             37014                       # number of writebacks
system.cpu.dcache.demand_mshr_hits::.cpu.data        35905                       # number of demand (read+write) MSHR hits
system.cpu.dcache.demand_mshr_hits::total        35905                       # number of demand (read+write) MSHR hits
system.cpu.dcache.overall_mshr_hits::.cpu.data        35905                       # number of overall MSHR hits
system.cpu.dcache.overall_mshr_hits::total        35905                       # number of overall MSHR hits
system.cpu.dcache.demand_mshr_misses::.cpu.data        39347                       # number of demand (read+write) MSHR misses
system.cpu.dcache.demand_mshr_misses::total        39347                       # number of demand (read+write) MSHR misses
system.cpu.dcache.overall_mshr_misses::.cpu.data        39349                       # number of overall MSHR misses
system.cpu.dcache.overall_mshr_misses::total        39349                       # number of overall MSHR misses
system.cpu.dcache.demand_mshr_miss_latency::.cpu.data   3221140122                       # number of demand (read+write) MSHR miss cycles
system.cpu.dcache.demand_mshr_miss_latency::total   3221140122                       # number of demand (read+write) MSHR miss cycles
system.cpu.dcache.overall_mshr_miss_latency::.cpu.data   3221325622                       # number of overall MSHR miss cycles
system.cpu.dcache.overall_mshr_miss_latency::total   3221325622                       # number of overall MSHR miss cycles
system.cpu.dcache.demand_mshr_miss_rate::.cpu.data     0.011464                       # mshr miss rate for demand accesses
system.cpu.dcache.demand_mshr_miss_rate::total     0.011464                       # mshr miss rate for demand accesses
system.cpu.dcache.overall_mshr_miss_rate::.cpu.data     0.011442                       # mshr miss rate for overall accesses
system.cpu.dcache.overall_mshr_miss_rate::total     0.011442                       # mshr miss rate for overall accesses
system.cpu.dcache.demand_avg_mshr_miss_latency::.cpu.data 81864.948332                       # average overall mshr miss latency
system.cpu.dcache.demand_avg_mshr_miss_latency::total 81864.948332                       # average overall mshr miss latency
system.cpu.dcache.overall_avg_mshr_miss_latency::.cpu.data 81865.501588                       # average overall mshr miss latency
system.cpu.dcache.overall_avg_mshr_miss_latency::total 81865.501588                       # average overall mshr miss latency
system.cpu.dcache.replacements                  38326                       # number of replacements
system.cpu.dcache.ReadReq_hits::.cpu.data      1627993                       # number of ReadReq hits
system.cpu.dcache.ReadReq_hits::total         1627993                       # number of ReadReq hits
system.cpu.dcache.ReadReq_misses::.cpu.data        19151                       # number of ReadReq misses
system.cpu.dcache.ReadReq_misses::total         19151                       # number of ReadReq misses
system.cpu.dcache.ReadReq_miss_latency::.cpu.data    984446000                       # number of ReadReq miss cycles
system.cpu.dcache.ReadReq_miss_latency::total    984446000                       # number of ReadReq miss cycles
system.cpu.dcache.ReadReq_accesses::.cpu.data      1647144                       # number of ReadReq accesses(hits+misses)
system.cpu.dcache.ReadReq_accesses::total      1647144                       # number of ReadReq accesses(hits+misses)
system.cpu.dcache.ReadReq_miss_rate::.cpu.data     0.011627                       # miss rate for ReadReq accesses
system.cpu.dcache.ReadReq_miss_rate::total     0.011627                       # miss rate for ReadReq accesses
system.cpu.dcache.ReadReq_avg_miss_latency::.cpu.data 51404.417524                       # average ReadReq miss latency
system.cpu.dcache.ReadReq_avg_miss_latency::total 51404.417524                       # average ReadReq miss latency
system.cpu.dcache.ReadReq_mshr_hits::.cpu.data        13048                       # number of ReadReq MSHR hits
system.cpu.dcache.ReadReq_mshr_hits::total        13048                       # number of ReadReq MSHR hits
system.cpu.dcache.ReadReq_mshr_misses::.cpu.data         6103                       # number of ReadReq MSHR misses
system.cpu.dcache.ReadReq_mshr_misses::total         6103                       # number of ReadReq MSHR misses
system.cpu.dcache.ReadReq_mshr_miss_latency::.cpu.data    391388500                       # number of ReadReq MSHR miss cycles
system.cpu.dcache.ReadReq_mshr_miss_latency::total    391388500                       # number of ReadReq MSHR miss cycles
system.cpu.dcache.ReadReq_mshr_miss_rate::.cpu.data     0.003705                       # mshr miss rate for ReadReq accesses
system.cpu.dcache.ReadReq_mshr_miss_rate::total     0.003705                       # mshr miss rate for ReadReq accesses
system.cpu.dcache.ReadReq_avg_mshr_miss_latency::.cpu.data 64130.509585                       # average ReadReq mshr miss latency
system.cpu.dcache.ReadReq_avg_mshr_miss_latency::total 64130.509585                       # average ReadReq mshr miss latency
system.cpu.dcache.WriteReq_hits::.cpu.data      1729055                       # number of WriteReq hits
system.cpu.dcache.WriteReq_hits::total        1729055                       # number of WriteReq hits
system.cpu.dcache.WriteReq_misses::.cpu.data        56088                       # number of WriteReq misses
system.cpu.dcache.WriteReq_misses::total        56088                       # number of WriteReq misses
system.cpu.dcache.WriteReq_miss_latency::.cpu.data   4311488743                       # number of WriteReq miss cycles
system.cpu.dcache.WriteReq_miss_latency::total   4311488743                       # number of WriteReq miss cycles
system.cpu.dcache.WriteReq_accesses::.cpu.data      1785143                       # number of WriteReq accesses(hits+misses)
system.cpu.dcache.WriteReq_accesses::total      1785143                       # number of WriteReq accesses(hits+misses)
system.cpu.dcache.WriteReq_miss_rate::.cpu.data     0.031419                       # miss rate for WriteReq accesses
system.cpu.dcache.WriteReq_miss_rate::total     0.031419                       # miss rate for WriteReq accesses
system.cpu.dcache.WriteReq_avg_miss_latency::.cpu.data 76870.074579                       # average WriteReq miss latency
system.cpu.dcache.WriteReq_avg_miss_latency::total 76870.074579                       # average WriteReq miss latency
system.cpu.dcache.WriteReq_mshr_hits::.cpu.data        22857                       # number of WriteReq MSHR hits
system.cpu.dcache.WriteReq_mshr_hits::total        22857                       # number of WriteReq MSHR hits
system.cpu.dcache.WriteReq_mshr_misses::.cpu.data        33231                       # number of WriteReq MSHR misses
system.cpu.dcache.WriteReq_mshr_misses::total        33231                       # number of WriteReq MSHR misses
system.cpu.dcache.WriteReq_mshr_miss_latency::.cpu.data   2829350627                       # number of WriteReq MSHR miss cycles
system.cpu.dcache.WriteReq_mshr_miss_latency::total   2829350627                       # number of WriteReq MSHR miss cycles
system.cpu.dcache.WriteReq_mshr_miss_rate::.cpu.data     0.018615                       # mshr miss rate for WriteReq accesses
system.cpu.dcache.WriteReq_mshr_miss_rate::total     0.018615                       # mshr miss rate for WriteReq accesses
system.cpu.dcache.WriteReq_avg_mshr_miss_latency::.cpu.data 85141.904457                       # average WriteReq mshr miss latency
system.cpu.dcache.WriteReq_avg_mshr_miss_latency::total 85141.904457                       # average WriteReq mshr miss latency
system.cpu.dcache.SoftPFReq_hits::.cpu.data         6730                       # number of SoftPFReq hits
system.cpu.dcache.SoftPFReq_hits::total          6730                       # number of SoftPFReq hits
system.cpu.dcache.SoftPFReq_misses::.cpu.data           87                       # number of SoftPFReq misses
system.cpu.dcache.SoftPFReq_misses::total           87                       # number of SoftPFReq misses
system.cpu.dcache.SoftPFReq_accesses::.cpu.data         6817                       # number of SoftPFReq accesses(hits+misses)
system.cpu.dcache.SoftPFReq_accesses::total         6817                       # number of SoftPFReq accesses(hits+misses)
system.cpu.dcache.SoftPFReq_miss_rate::.cpu.data     0.012762                       # miss rate for SoftPFReq accesses
system.cpu.dcache.SoftPFReq_miss_rate::total     0.012762                       # miss rate for SoftPFReq accesses
system.cpu.dcache.SoftPFReq_mshr_misses::.cpu.data            2                       # number of SoftPFReq MSHR misses
system.cpu.dcache.SoftPFReq_mshr_misses::total            2                       # number of SoftPFReq MSHR misses
system.cpu.dcache.SoftPFReq_mshr_miss_latency::.cpu.data       185500                       # number of SoftPFReq MSHR miss cycles
system.cpu.dcache.SoftPFReq_mshr_miss_latency::total       185500                       # number of SoftPFReq MSHR miss cycles
system.cpu.dcache.SoftPFReq_mshr_miss_rate::.cpu.data     0.000293                       # mshr miss rate for SoftPFReq accesses
system.cpu.dcache.SoftPFReq_mshr_miss_rate::total     0.000293                       # mshr miss rate for SoftPFReq accesses
system.cpu.dcache.SoftPFReq_avg_mshr_miss_latency::.cpu.data        92750                       # average SoftPFReq mshr miss latency
system.cpu.dcache.SoftPFReq_avg_mshr_miss_latency::total        92750                       # average SoftPFReq mshr miss latency
system.cpu.dcache.WriteLineReq_misses::.cpu.data           13                       # number of WriteLineReq misses
system.cpu.dcache.WriteLineReq_misses::total           13                       # number of WriteLineReq misses
system.cpu.dcache.WriteLineReq_miss_latency::.cpu.data       413995                       # number of WriteLineReq miss cycles
system.cpu.dcache.WriteLineReq_miss_latency::total       413995                       # number of WriteLineReq miss cycles
system.cpu.dcache.WriteLineReq_accesses::.cpu.data           13                       # number of WriteLineReq accesses(hits+misses)
system.cpu.dcache.WriteLineReq_accesses::total           13                       # number of WriteLineReq accesses(hits+misses)
system.cpu.dcache.WriteLineReq_miss_rate::.cpu.data            1                       # miss rate for WriteLineReq accesses
system.cpu.dcache.WriteLineReq_miss_rate::total            1                       # miss rate for WriteLineReq accesses
system.cpu.dcache.WriteLineReq_avg_miss_latency::.cpu.data 31845.769231                       # average WriteLineReq miss latency
system.cpu.dcache.WriteLineReq_avg_miss_latency::total 31845.769231                       # average WriteLineReq miss latency
system.cpu.dcache.WriteLineReq_mshr_misses::.cpu.data           13                       # number of WriteLineReq MSHR misses
system.cpu.dcache.WriteLineReq_mshr_misses::total           13                       # number of WriteLineReq MSHR misses
system.cpu.dcache.WriteLineReq_mshr_miss_latency::.cpu.data       400995                       # number of WriteLineReq MSHR miss cycles
system.cpu.dcache.WriteLineReq_mshr_miss_latency::total       400995                       # number of WriteLineReq MSHR miss cycles
system.cpu.dcache.WriteLineReq_mshr_miss_rate::.cpu.data            1                       # mshr miss rate for WriteLineReq accesses
system.cpu.dcache.WriteLineReq_mshr_miss_rate::total            1                       # mshr miss rate for WriteLineReq accesses
system.cpu.dcache.WriteLineReq_avg_mshr_miss_latency::.cpu.data 30845.769231                       # average WriteLineReq mshr miss latency
system.cpu.dcache.WriteLineReq_avg_mshr_miss_latency::total 30845.769231                       # average WriteLineReq mshr miss latency
system.cpu.dcache.LoadLockedReq_hits::.cpu.data        12134                       # number of LoadLockedReq hits
system.cpu.dcache.LoadLockedReq_hits::total        12134                       # number of LoadLockedReq hits
system.cpu.dcache.LoadLockedReq_misses::.cpu.data            2                       # number of LoadLockedReq misses
system.cpu.dcache.LoadLockedReq_misses::total            2                       # number of LoadLockedReq misses
system.cpu.dcache.LoadLockedReq_miss_latency::.cpu.data       158500                       # number of LoadLockedReq miss cycles
system.cpu.dcache.LoadLockedReq_miss_latency::total       158500                       # number of LoadLockedReq miss cycles
system.cpu.dcache.LoadLockedReq_accesses::.cpu.data        12136                       # number of LoadLockedReq accesses(hits+misses)
system.cpu.dcache.LoadLockedReq_accesses::total        12136                       # number of LoadLockedReq accesses(hits+misses)
system.cpu.dcache.LoadLockedReq_miss_rate::.cpu.data     0.000165                       # miss rate for LoadLockedReq accesses
system.cpu.dcache.LoadLockedReq_miss_rate::total     0.000165                       # miss rate for LoadLockedReq accesses
system.cpu.dcache.LoadLockedReq_avg_miss_latency::.cpu.data        79250                       # average LoadLockedReq miss latency
system.cpu.dcache.LoadLockedReq_avg_miss_latency::total        79250                       # average LoadLockedReq miss latency
system.cpu.dcache.LoadLockedReq_mshr_hits::.cpu.data            1                       # number of LoadLockedReq MSHR hits
system.cpu.dcache.LoadLockedReq_mshr_hits::total            1                       # number of LoadLockedReq MSHR hits
system.cpu.dcache.LoadLockedReq_mshr_misses::.cpu.data            1                       # number of LoadLockedReq MSHR misses
system.cpu.dcache.LoadLockedReq_mshr_misses::total            1                       # number of LoadLockedReq MSHR misses
system.cpu.dcache.LoadLockedReq_mshr_miss_latency::.cpu.data        85000                       # number of LoadLockedReq MSHR miss cycles
system.cpu.dcache.LoadLockedReq_mshr_miss_latency::total        85000                       # number of LoadLockedReq MSHR miss cycles
system.cpu.dcache.LoadLockedReq_mshr_miss_rate::.cpu.data     0.000082                       # mshr miss rate for LoadLockedReq accesses
system.cpu.dcache.LoadLockedReq_mshr_miss_rate::total     0.000082                       # mshr miss rate for LoadLockedReq accesses
system.cpu.dcache.LoadLockedReq_avg_mshr_miss_latency::.cpu.data        85000                       # average LoadLockedReq mshr miss latency
system.cpu.dcache.LoadLockedReq_avg_mshr_miss_latency::total        85000                       # average LoadLockedReq mshr miss latency
system.cpu.dcache.StoreCondReq_hits::.cpu.data        12120                       # number of StoreCondReq hits
system.cpu.dcache.StoreCondReq_hits::total        12120                       # number of StoreCondReq hits
system.cpu.dcache.StoreCondReq_accesses::.cpu.data        12120                       # number of StoreCondReq accesses(hits+misses)
system.cpu.dcache.StoreCondReq_accesses::total        12120                       # number of StoreCondReq accesses(hits+misses)
system.cpu.dcache.power_state.pwrStateResidencyTicks::UNDEFINED  14510883000                       # Cumulative time (in ticks) in various power states
system.cpu.dcache.tags.tagsinuse          1011.824716                       # Cycle average of tags in use
system.cpu.dcache.tags.total_refs             3427382                       # Total number of references to valid blocks.
system.cpu.dcache.tags.sampled_refs             39350                       # Sample count of references to valid blocks.
system.cpu.dcache.tags.avg_refs             87.099924                       # Average number of references to valid blocks.
system.cpu.dcache.tags.warmup_cycle            176500                       # Cycle when the warmup percentage was hit.
system.cpu.dcache.tags.occ_blocks::.cpu.data  1011.824716                       # Average occupied blocks per requestor
system.cpu.dcache.tags.occ_percent::.cpu.data     0.988110                       # Average percentage of cache occupancy
system.cpu.dcache.tags.occ_percent::total     0.988110                       # Average percentage of cache occupancy
system.cpu.dcache.tags.occ_task_id_blocks::1024         1024                       # Occupied blocks per task id
system.cpu.dcache.tags.age_task_id_blocks_1024::0           25                       # Occupied blocks per task id
system.cpu.dcache.tags.age_task_id_blocks_1024::1          238                       # Occupied blocks per task id
system.cpu.dcache.tags.age_task_id_blocks_1024::2          720                       # Occupied blocks per task id
system.cpu.dcache.tags.age_task_id_blocks_1024::3            1                       # Occupied blocks per task id
system.cpu.dcache.tags.age_task_id_blocks_1024::4           40                       # Occupied blocks per task id
system.cpu.dcache.tags.occ_task_id_percent::1024            1                       # Percentage of cache occupancy per task id
system.cpu.dcache.tags.tag_accesses           6966096                       # Number of tag accesses
system.cpu.dcache.tags.data_accesses          6966096                       # Number of data accesses
system.cpu.dcache.tags.power_state.pwrStateResidencyTicks::UNDEFINED  14510883000                       # Cumulative time (in ticks) in various power states
system.cpu.power_state.pwrStateResidencyTicks::ON  14510883000                       # Cumulative time (in ticks) in various power states

---------- End Simulation Statistics   ----------
