
---------- Begin Simulation Statistics ----------
final_tick                                 5916620000                       # Number of ticks from beginning of simulation (restored from checkpoints and never reset)
host_inst_rate                                 160387                       # Simulator instruction rate (inst/s)
host_mem_usage                                 884568                       # Number of bytes of host memory used
host_op_rate                                   181859                       # Simulator op (including micro ops) rate (op/s)
host_seconds                                    62.35                       # Real time elapsed on the host
host_tick_rate                               94894897                       # Simulator tick rate (ticks/s)
sim_freq                                 1000000000000                       # Frequency of simulated ticks
sim_insts                                    10000000                       # Number of instructions simulated
sim_ops                                      11338771                       # Number of ops (including micro ops) simulated
sim_seconds                                  0.005917                       # Number of seconds simulated
sim_ticks                                  5916620000                       # Number of ticks simulated
system.cpu.branchPred.BTBCorrect                    0                       # Number of correct BTB predictions (this stat may not work properly.
system.cpu.branchPred.BTBHitPct             99.892476                       # BTB Hit Percentage
system.cpu.branchPred.BTBHits                  916018                       # Number of BTB hits
system.cpu.branchPred.BTBLookups               917004                       # Number of BTB lookups
system.cpu.branchPred.RASInCorrect                  6                       # Number of incorrect RAS predictions.
system.cpu.branchPred.condIncorrect               951                       # Number of conditional branches incorrect
system.cpu.branchPred.condPredicted           1793462                       # Number of conditional branches predicted
system.cpu.branchPred.indirectHits              30303                       # Number of indirect target hits.
system.cpu.branchPred.indirectLookups           30582                       # Number of indirect predictor lookups.
system.cpu.branchPred.indirectMisses              279                       # Number of indirect misses.
system.cpu.branchPred.lookups                 2232412                       # Number of BP lookups
system.cpu.branchPred.usedRAS                  109441                       # Number of times the RAS was used to get a target.
system.cpu.branchPredindirectMispredicted           78                       # Number of mispredicted indirect branches.
system.cpu.cc_regfile_reads                   4685208                       # number of cc regfile reads
system.cpu.cc_regfile_writes                  4442484                       # number of cc regfile writes
system.cpu.commit.amos                              0                       # Number of atomic instructions committed
system.cpu.commit.branchMispredicts               694                       # The number of times a branch was mispredicted
system.cpu.commit.branches                    2221351                       # Number of branches committed
system.cpu.commit.bw_lim_events                453235                       # number cycles where commit BW limit reached
system.cpu.commit.commitNonSpecStalls           12142                       # The number of times commit has been forced to stall to communicate backwards
system.cpu.commit.commitSquashedInsts           44543                       # The number of squashed insts skipped by commit
system.cpu.commit.committedInsts             10006066                       # Number of instructions committed
system.cpu.commit.committedOps               11344837                       # Number of ops (including micro ops) committed
system.cpu.commit.committed_per_cycle::samples     11208517                       # Number of insts commited each cycle
system.cpu.commit.committed_per_cycle::mean     1.012162                       # Number of insts commited each cycle
system.cpu.commit.committed_per_cycle::stdev     2.011256                       # Number of insts commited each cycle
system.cpu.commit.committed_per_cycle::underflows            0      0.00%      0.00% # Number of insts commited each cycle
system.cpu.commit.committed_per_cycle::0      7511833     67.02%     67.02% # Number of insts commited each cycle
system.cpu.commit.committed_per_cycle::1      1448968     12.93%     79.95% # Number of insts commited each cycle
system.cpu.commit.committed_per_cycle::2       676366      6.03%     85.98% # Number of insts commited each cycle
system.cpu.commit.committed_per_cycle::3       381199      3.40%     89.38% # Number of insts commited each cycle
system.cpu.commit.committed_per_cycle::4       307780      2.75%     92.13% # Number of insts commited each cycle
system.cpu.commit.committed_per_cycle::5       138439      1.24%     93.36% # Number of insts commited each cycle
system.cpu.commit.committed_per_cycle::6       184534      1.65%     95.01% # Number of insts commited each cycle
system.cpu.commit.committed_per_cycle::7       106163      0.95%     95.96% # Number of insts commited each cycle
system.cpu.commit.committed_per_cycle::8       453235      4.04%    100.00% # Number of insts commited each cycle
system.cpu.commit.committed_per_cycle::overflows            0      0.00%    100.00% # Number of insts commited each cycle
system.cpu.commit.committed_per_cycle::min_value            0                       # Number of insts commited each cycle
system.cpu.commit.committed_per_cycle::max_value            8                       # Number of insts commited each cycle
system.cpu.commit.committed_per_cycle::total     11208517                       # Number of insts commited each cycle
system.cpu.commit.fp_insts                          0                       # Number of committed floating point instructions.
system.cpu.commit.function_calls               109017                       # Number of function calls committed.
system.cpu.commit.int_insts                   9861989                       # Number of committed integer instructions.
system.cpu.commit.loads                       1710889                       # Number of loads committed
system.cpu.commit.membars                       12120                       # Number of memory barriers committed
system.cpu.commit.op_class_0::No_OpClass         8314      0.07%      0.07% # Class of committed instruction
system.cpu.commit.op_class_0::IntAlu          7690808     67.79%     67.86% # Class of committed instruction
system.cpu.commit.op_class_0::IntMult           60460      0.53%     68.40% # Class of committed instruction
system.cpu.commit.op_class_0::IntDiv                3      0.00%     68.40% # Class of committed instruction
system.cpu.commit.op_class_0::FloatAdd              0      0.00%     68.40% # Class of committed instruction
system.cpu.commit.op_class_0::FloatCmp              0      0.00%     68.40% # Class of committed instruction
system.cpu.commit.op_class_0::FloatCvt              0      0.00%     68.40% # Class of committed instruction
system.cpu.commit.op_class_0::FloatMult             0      0.00%     68.40% # Class of committed instruction
system.cpu.commit.op_class_0::FloatMultAcc            0      0.00%     68.40% # Class of committed instruction
system.cpu.commit.op_class_0::FloatDiv              0      0.00%     68.40% # Class of committed instruction
system.cpu.commit.op_class_0::FloatMisc             0      0.00%     68.40% # Class of committed instruction
system.cpu.commit.op_class_0::FloatSqrt             0      0.00%     68.40% # Class of committed instruction
system.cpu.commit.op_class_0::SimdAdd           18890      0.17%     68.56% # Class of committed instruction
system.cpu.commit.op_class_0::SimdAddAcc            0      0.00%     68.56% # Class of committed instruction
system.cpu.commit.op_class_0::SimdAlu           18886      0.17%     68.73% # Class of committed instruction
system.cpu.commit.op_class_0::SimdCmp           16638      0.15%     68.88% # Class of committed instruction
system.cpu.commit.op_class_0::SimdCvt               0      0.00%     68.88% # Class of committed instruction
system.cpu.commit.op_class_0::SimdMisc          22677      0.20%     69.08% # Class of committed instruction
system.cpu.commit.op_class_0::SimdMult              0      0.00%     69.08% # Class of committed instruction
system.cpu.commit.op_class_0::SimdMultAcc            0      0.00%     69.08% # Class of committed instruction
system.cpu.commit.op_class_0::SimdShift             0      0.00%     69.08% # Class of committed instruction
system.cpu.commit.op_class_0::SimdShiftAcc            0      0.00%     69.08% # Class of committed instruction
system.cpu.commit.op_class_0::SimdDiv               0      0.00%     69.08% # Class of committed instruction
system.cpu.commit.op_class_0::SimdSqrt              0      0.00%     69.08% # Class of committed instruction
system.cpu.commit.op_class_0::SimdFloatAdd            0      0.00%     69.08% # Class of committed instruction
system.cpu.commit.op_class_0::SimdFloatAlu            0      0.00%     69.08% # Class of committed instruction
system.cpu.commit.op_class_0::SimdFloatCmp            0      0.00%     69.08% # Class of committed instruction
system.cpu.commit.op_class_0::SimdFloatCvt            0      0.00%     69.08% # Class of committed instruction
system.cpu.commit.op_class_0::SimdFloatDiv            0      0.00%     69.08% # Class of committed instruction
system.cpu.commit.op_class_0::SimdFloatMisc            0      0.00%     69.08% # Class of committed instruction
system.cpu.commit.op_class_0::SimdFloatMult            0      0.00%     69.08% # Class of committed instruction
system.cpu.commit.op_class_0::SimdFloatMultAcc            0      0.00%     69.08% # Class of committed instruction
system.cpu.commit.op_class_0::SimdFloatSqrt            0      0.00%     69.08% # Class of committed instruction
system.cpu.commit.op_class_0::SimdReduceAdd            0      0.00%     69.08% # Class of committed instruction
system.cpu.commit.op_class_0::SimdReduceAlu            0      0.00%     69.08% # Class of committed instruction
system.cpu.commit.op_class_0::SimdReduceCmp            0      0.00%     69.08% # Class of committed instruction
system.cpu.commit.op_class_0::SimdFloatReduceAdd            0      0.00%     69.08% # Class of committed instruction
system.cpu.commit.op_class_0::SimdFloatReduceCmp            0      0.00%     69.08% # Class of committed instruction
system.cpu.commit.op_class_0::SimdAes               0      0.00%     69.08% # Class of committed instruction
system.cpu.commit.op_class_0::SimdAesMix            0      0.00%     69.08% # Class of committed instruction
system.cpu.commit.op_class_0::SimdSha1Hash            0      0.00%     69.08% # Class of committed instruction
system.cpu.commit.op_class_0::SimdSha1Hash2            0      0.00%     69.08% # Class of committed instruction
system.cpu.commit.op_class_0::SimdSha256Hash            0      0.00%     69.08% # Class of committed instruction
system.cpu.commit.op_class_0::SimdSha256Hash2            0      0.00%     69.08% # Class of committed instruction
system.cpu.commit.op_class_0::SimdShaSigma2            0      0.00%     69.08% # Class of committed instruction
system.cpu.commit.op_class_0::SimdShaSigma3            0      0.00%     69.08% # Class of committed instruction
system.cpu.commit.op_class_0::SimdPredAlu            0      0.00%     69.08% # Class of committed instruction
system.cpu.commit.op_class_0::MemRead         1710889     15.08%     84.16% # Class of committed instruction
system.cpu.commit.op_class_0::MemWrite        1797272     15.84%    100.00% # Class of committed instruction
system.cpu.commit.op_class_0::FloatMemRead            0      0.00%    100.00% # Class of committed instruction
system.cpu.commit.op_class_0::FloatMemWrite            0      0.00%    100.00% # Class of committed instruction
system.cpu.commit.op_class_0::IprAccess             0      0.00%    100.00% # Class of committed instruction
system.cpu.commit.op_class_0::InstPrefetch            0      0.00%    100.00% # Class of committed instruction
system.cpu.commit.op_class_0::total          11344837                       # Class of committed instruction
system.cpu.commit.refs                        3508161                       # Number of memory references committed
system.cpu.commit.swp_count                         0                       # Number of s/w prefetches committed
system.cpu.commit.vec_insts                    198825                       # Number of committed Vector instructions.
system.cpu.committedInsts                    10000000                       # Number of Instructions Simulated
system.cpu.committedOps                      11338771                       # Number of Ops (including micro ops) Simulated
system.cpu.cpi                               1.183324                       # CPI: Cycles Per Instruction
system.cpu.cpi_total                         1.183324                       # CPI: Total CPI of All Threads
system.cpu.decode.BlockedCycles               2820135                       # Number of cycles decode is blocked
system.cpu.decode.BranchMispred                   261                       # Number of times decode detected a branch misprediction
system.cpu.decode.BranchResolved               914957                       # Number of times decode resolved a branch
system.cpu.decode.DecodedInsts               11402956                       # Number of instructions handled by decode
system.cpu.decode.IdleCycles                  6157530                       # Number of cycles decode is idle
system.cpu.decode.RunCycles                   2186319                       # Number of cycles decode is running
system.cpu.decode.SquashCycles                   1370                       # Number of cycles decode is squashing
system.cpu.decode.SquashedInsts                   925                       # Number of squashed instructions handled by decode
system.cpu.decode.UnblockCycles                 49344                       # Number of cycles decode is unblocking
system.cpu.dtb.accesses                             0                       # DTB accesses
system.cpu.dtb.align_faults                         0                       # Number of TLB faults due to alignment restrictions
system.cpu.dtb.domain_faults                        0                       # Number of TLB faults due to domain restrictions
system.cpu.dtb.flush_entries                        0                       # Number of entries that have been flushed from TLB
system.cpu.dtb.flush_tlb                            0                       # Number of times complete TLB was flushed
system.cpu.dtb.flush_tlb_asid                       0                       # Number of times TLB was flushed by ASID
system.cpu.dtb.flush_tlb_mva                        0                       # Number of times TLB was flushed by MVA
system.cpu.dtb.flush_tlb_mva_asid                   0                       # Number of times TLB was flushed by MVA & ASID
system.cpu.dtb.hits                                 0                       # DTB hits
system.cpu.dtb.inst_accesses                        0                       # ITB inst accesses
system.cpu.dtb.inst_hits                            0                       # ITB inst hits
system.cpu.dtb.inst_misses                          0                       # ITB inst misses
system.cpu.dtb.misses                               0                       # DTB misses
system.cpu.dtb.perms_faults                         0                       # Number of TLB faults due to permissions restrictions
system.cpu.dtb.prefetch_faults                      0                       # Number of TLB faults due to prefetch
system.cpu.dtb.read_accesses                        0                       # DTB read accesses
system.cpu.dtb.read_hits                            0                       # DTB read hits
system.cpu.dtb.read_misses                          0                       # DTB read misses
system.cpu.dtb.stage2_mmu.stage2_tlb.accesses            0                       # DTB accesses
system.cpu.dtb.stage2_mmu.stage2_tlb.align_faults            0                       # Number of TLB faults due to alignment restrictions
system.cpu.dtb.stage2_mmu.stage2_tlb.domain_faults            0                       # Number of TLB faults due to domain restrictions
system.cpu.dtb.stage2_mmu.stage2_tlb.flush_entries            0                       # Number of entries that have been flushed from TLB
system.cpu.dtb.stage2_mmu.stage2_tlb.flush_tlb            0                       # Number of times complete TLB was flushed
system.cpu.dtb.stage2_mmu.stage2_tlb.flush_tlb_asid            0                       # Number of times TLB was flushed by ASID
system.cpu.dtb.stage2_mmu.stage2_tlb.flush_tlb_mva            0                       # Number of times TLB was flushed by MVA
system.cpu.dtb.stage2_mmu.stage2_tlb.flush_tlb_mva_asid            0                       # Number of times TLB was flushed by MVA & ASID
system.cpu.dtb.stage2_mmu.stage2_tlb.hits            0                       # DTB hits
system.cpu.dtb.stage2_mmu.stage2_tlb.inst_accesses            0                       # ITB inst accesses
system.cpu.dtb.stage2_mmu.stage2_tlb.inst_hits            0                       # ITB inst hits
system.cpu.dtb.stage2_mmu.stage2_tlb.inst_misses            0                       # ITB inst misses
system.cpu.dtb.stage2_mmu.stage2_tlb.misses            0                       # DTB misses
system.cpu.dtb.stage2_mmu.stage2_tlb.perms_faults            0                       # Number of TLB faults due to permissions restrictions
system.cpu.dtb.stage2_mmu.stage2_tlb.prefetch_faults            0                       # Number of TLB faults due to prefetch
system.cpu.dtb.stage2_mmu.stage2_tlb.read_accesses            0                       # DTB read accesses
system.cpu.dtb.stage2_mmu.stage2_tlb.read_hits            0                       # DTB read hits
system.cpu.dtb.stage2_mmu.stage2_tlb.read_misses            0                       # DTB read misses
system.cpu.dtb.stage2_mmu.stage2_tlb.walker.walkRequestOrigin_Requested::Data            0                       # Table walker requests started/completed, data/inst
system.cpu.dtb.stage2_mmu.stage2_tlb.walker.walkRequestOrigin_Requested::Inst            0                       # Table walker requests started/completed, data/inst
system.cpu.dtb.stage2_mmu.stage2_tlb.walker.walkRequestOrigin_Requested::total            0                       # Table walker requests started/completed, data/inst
system.cpu.dtb.stage2_mmu.stage2_tlb.walker.walkRequestOrigin_Completed::Data            0                       # Table walker requests started/completed, data/inst
system.cpu.dtb.stage2_mmu.stage2_tlb.walker.walkRequestOrigin_Completed::Inst            0                       # Table walker requests started/completed, data/inst
system.cpu.dtb.stage2_mmu.stage2_tlb.walker.walkRequestOrigin_Completed::total            0                       # Table walker requests started/completed, data/inst
system.cpu.dtb.stage2_mmu.stage2_tlb.walker.walkRequestOrigin::total            0                       # Table walker requests started/completed, data/inst
system.cpu.dtb.stage2_mmu.stage2_tlb.walker.walks            0                       # Table walker walks requested
system.cpu.dtb.stage2_mmu.stage2_tlb.write_accesses            0                       # DTB write accesses
system.cpu.dtb.stage2_mmu.stage2_tlb.write_hits            0                       # DTB write hits
system.cpu.dtb.stage2_mmu.stage2_tlb.write_misses            0                       # DTB write misses
system.cpu.dtb.walker.walkRequestOrigin_Requested::Data            0                       # Table walker requests started/completed, data/inst
system.cpu.dtb.walker.walkRequestOrigin_Requested::Inst            0                       # Table walker requests started/completed, data/inst
system.cpu.dtb.walker.walkRequestOrigin_Requested::total            0                       # Table walker requests started/completed, data/inst
system.cpu.dtb.walker.walkRequestOrigin_Completed::Data            0                       # Table walker requests started/completed, data/inst
system.cpu.dtb.walker.walkRequestOrigin_Completed::Inst            0                       # Table walker requests started/completed, data/inst
system.cpu.dtb.walker.walkRequestOrigin_Completed::total            0                       # Table walker requests started/completed, data/inst
system.cpu.dtb.walker.walkRequestOrigin::total            0                       # Table walker requests started/completed, data/inst
system.cpu.dtb.walker.walks                         0                       # Table walker walks requested
system.cpu.dtb.write_accesses                       0                       # DTB write accesses
system.cpu.dtb.write_hits                           0                       # DTB write hits
system.cpu.dtb.write_misses                         0                       # DTB write misses
system.cpu.fetch.Branches                     2232412                       # Number of branches that fetch encountered
system.cpu.fetch.CacheLines                   1486622                       # Number of cache lines fetched
system.cpu.fetch.Cycles                       4543097                       # Number of cycles fetch has run and was not squashing or blocked
system.cpu.fetch.IcacheSquashes                   762                       # Number of outstanding Icache misses that were squashed
system.cpu.fetch.Insts                       10079834                       # Number of instructions fetch has processed
system.cpu.fetch.SquashCycles                    3254                       # Number of cycles fetch has spent squashing
system.cpu.fetch.branchRate                  0.188656                       # Number of branch fetches per cycle
system.cpu.fetch.icacheStallCycles            6669974                       # Number of cycles fetch is stalled on an Icache miss
system.cpu.fetch.predictedBranches            1055762                       # Number of branches that fetch has predicted taken
system.cpu.fetch.rate                        0.851824                       # Number of inst fetches per cycle
system.cpu.fetch.rateDist::samples           11214698                       # Number of instructions fetched each cycle (Total)
system.cpu.fetch.rateDist::mean              1.019272                       # Number of instructions fetched each cycle (Total)
system.cpu.fetch.rateDist::stdev             2.329562                       # Number of instructions fetched each cycle (Total)
system.cpu.fetch.rateDist::underflows               0      0.00%      0.00% # Number of instructions fetched each cycle (Total)
system.cpu.fetch.rateDist::0                  8953941     79.84%     79.84% # Number of instructions fetched each cycle (Total)
system.cpu.fetch.rateDist::1                   231295      2.06%     81.90% # Number of instructions fetched each cycle (Total)
system.cpu.fetch.rateDist::2                   210483      1.88%     83.78% # Number of instructions fetched each cycle (Total)
system.cpu.fetch.rateDist::3                   291374      2.60%     86.38% # Number of instructions fetched each cycle (Total)
system.cpu.fetch.rateDist::4                   370004      3.30%     89.68% # Number of instructions fetched each cycle (Total)
system.cpu.fetch.rateDist::5                   205476      1.83%     91.51% # Number of instructions fetched each cycle (Total)
system.cpu.fetch.rateDist::6                    61189      0.55%     92.06% # Number of instructions fetched each cycle (Total)
system.cpu.fetch.rateDist::7                    97569      0.87%     92.93% # Number of instructions fetched each cycle (Total)
system.cpu.fetch.rateDist::8                   793367      7.07%    100.00% # Number of instructions fetched each cycle (Total)
system.cpu.fetch.rateDist::overflows                0      0.00%    100.00% # Number of instructions fetched each cycle (Total)
system.cpu.fetch.rateDist::min_value                0                       # Number of instructions fetched each cycle (Total)
system.cpu.fetch.rateDist::max_value                8                       # Number of instructions fetched each cycle (Total)
system.cpu.fetch.rateDist::total             11214698                       # Number of instructions fetched each cycle (Total)
system.cpu.idleCycles                          618543                       # Total number of cycles that the CPU has spent unscheduled due to idling
system.cpu.iew.branchMispredicts                  806                       # Number of branch mispredicts detected at execute
system.cpu.iew.exec_branches                  2225068                       # Number of branches executed
system.cpu.iew.exec_nop                          6096                       # number of nop insts executed
system.cpu.iew.exec_rate                     0.969607                       # Inst execution rate
system.cpu.iew.exec_refs                      3620288                       # number of memory reference insts executed
system.cpu.iew.exec_stores                    1813202                       # Number of stores executed
system.cpu.iew.exec_swp                             0                       # number of swp insts executed
system.cpu.iew.iewBlockCycles                    5067                       # Number of cycles IEW is blocking
system.cpu.iew.iewDispLoadInsts               1716911                       # Number of dispatched load instructions
system.cpu.iew.iewDispNonSpecInsts              12173                       # Number of dispatched non-speculative instructions
system.cpu.iew.iewDispSquashedInsts               371                       # Number of squashed instructions skipped by dispatch
system.cpu.iew.iewDispStoreInsts              1814902                       # Number of dispatched store instructions
system.cpu.iew.iewDispatchedInsts            11394793                       # Number of instructions dispatched to IQ
system.cpu.iew.iewExecLoadInsts               1807086                       # Number of load instructions executed
system.cpu.iew.iewExecSquashedInsts               917                       # Number of squashed instructions skipped in execute
system.cpu.iew.iewExecutedInsts              11473591                       # Number of executed instructions
system.cpu.iew.iewIQFullEvents                      9                       # Number of times the IQ has become full, causing a stall
system.cpu.iew.iewIdleCycles                        0                       # Number of cycles IEW is idle
system.cpu.iew.iewLSQFullEvents                101785                       # Number of times the LSQ has become full, causing a stall
system.cpu.iew.iewSquashCycles                   1370                       # Number of cycles IEW is squashing
system.cpu.iew.iewUnblockCycles                101641                       # Number of cycles IEW is unblocking
system.cpu.iew.lsq.thread0.blockedLoads             0                       # Number of blocked loads due to partial load-store forwarding
system.cpu.iew.lsq.thread0.cacheBlocked             0                       # Number of times an access to memory failed due to the cache being blocked
system.cpu.iew.lsq.thread0.forwLoads            84637                       # Number of loads that had data forwarded from stores
system.cpu.iew.lsq.thread0.ignoredResponses            1                       # Number of memory responses ignored because the instruction is squashed
system.cpu.iew.lsq.thread0.invAddrLoads             0                       # Number of loads ignored due to an invalid address
system.cpu.iew.lsq.thread0.invAddrSwpfs             0                       # Number of software prefetches ignored due to an invalid address
system.cpu.iew.lsq.thread0.memOrderViolation           63                       # Number of memory ordering violations
system.cpu.iew.lsq.thread0.rescheduledLoads        90728                       # Number of loads that were rescheduled
system.cpu.iew.lsq.thread0.squashedLoads         6021                       # Number of loads squashed
system.cpu.iew.lsq.thread0.squashedStores        17629                       # Number of stores squashed
system.cpu.iew.memOrderViolationEvents             63                       # Number of memory order violations
system.cpu.iew.predictedNotTakenIncorrect          684                       # Number of branches that were predicted not taken incorrectly
system.cpu.iew.predictedTakenIncorrect            122                       # Number of branches that were predicted taken incorrectly
system.cpu.iew.wb_consumers                  10362006                       # num instructions consuming a value
system.cpu.iew.wb_count                      11378307                       # cumulative count of insts written-back
system.cpu.iew.wb_fanout                     0.527739                       # average fanout of values written-back
system.cpu.iew.wb_producers                   5468439                       # num instructions producing a value
system.cpu.iew.wb_rate                       0.961555                       # insts written-back per cycle
system.cpu.iew.wb_sent                       11381678                       # cumulative count of insts sent to commit
system.cpu.int_regfile_reads                 13060229                       # number of integer regfile reads
system.cpu.int_regfile_writes                 7579311                       # number of integer regfile writes
system.cpu.ipc                               0.845077                       # IPC: Instructions Per Cycle
system.cpu.ipc_total                         0.845077                       # IPC: Total IPC of All Threads
system.cpu.iq.FU_type_0::No_OpClass              8328      0.07%      0.07% # Type of FU issued
system.cpu.iq.FU_type_0::IntAlu               7707737     67.17%     67.25% # Type of FU issued
system.cpu.iq.FU_type_0::IntMult                60466      0.53%     67.77% # Type of FU issued
system.cpu.iq.FU_type_0::IntDiv                     3      0.00%     67.77% # Type of FU issued
system.cpu.iq.FU_type_0::FloatAdd                   0      0.00%     67.77% # Type of FU issued
system.cpu.iq.FU_type_0::FloatCmp                   0      0.00%     67.77% # Type of FU issued
system.cpu.iq.FU_type_0::FloatCvt                   0      0.00%     67.77% # Type of FU issued
system.cpu.iq.FU_type_0::FloatMult                  0      0.00%     67.77% # Type of FU issued
system.cpu.iq.FU_type_0::FloatMultAcc               0      0.00%     67.77% # Type of FU issued
system.cpu.iq.FU_type_0::FloatDiv                   0      0.00%     67.77% # Type of FU issued
system.cpu.iq.FU_type_0::FloatMisc                  0      0.00%     67.77% # Type of FU issued
system.cpu.iq.FU_type_0::FloatSqrt                  0      0.00%     67.77% # Type of FU issued
system.cpu.iq.FU_type_0::SimdAdd                18933      0.17%     67.94% # Type of FU issued
system.cpu.iq.FU_type_0::SimdAddAcc                 0      0.00%     67.94% # Type of FU issued
system.cpu.iq.FU_type_0::SimdAlu                18930      0.16%     68.10% # Type of FU issued
system.cpu.iq.FU_type_0::SimdCmp                16666      0.15%     68.25% # Type of FU issued
system.cpu.iq.FU_type_0::SimdCvt                    0      0.00%     68.25% # Type of FU issued
system.cpu.iq.FU_type_0::SimdMisc               22722      0.20%     68.45% # Type of FU issued
system.cpu.iq.FU_type_0::SimdMult                   0      0.00%     68.45% # Type of FU issued
system.cpu.iq.FU_type_0::SimdMultAcc                0      0.00%     68.45% # Type of FU issued
system.cpu.iq.FU_type_0::SimdShift                  0      0.00%     68.45% # Type of FU issued
system.cpu.iq.FU_type_0::SimdShiftAcc               0      0.00%     68.45% # Type of FU issued
system.cpu.iq.FU_type_0::SimdDiv                    0      0.00%     68.45% # Type of FU issued
system.cpu.iq.FU_type_0::SimdSqrt                   0      0.00%     68.45% # Type of FU issued
system.cpu.iq.FU_type_0::SimdFloatAdd               0      0.00%     68.45% # Type of FU issued
system.cpu.iq.FU_type_0::SimdFloatAlu               0      0.00%     68.45% # Type of FU issued
system.cpu.iq.FU_type_0::SimdFloatCmp               0      0.00%     68.45% # Type of FU issued
system.cpu.iq.FU_type_0::SimdFloatCvt               0      0.00%     68.45% # Type of FU issued
system.cpu.iq.FU_type_0::SimdFloatDiv               0      0.00%     68.45% # Type of FU issued
system.cpu.iq.FU_type_0::SimdFloatMisc              0      0.00%     68.45% # Type of FU issued
system.cpu.iq.FU_type_0::SimdFloatMult              0      0.00%     68.45% # Type of FU issued
system.cpu.iq.FU_type_0::SimdFloatMultAcc            0      0.00%     68.45% # Type of FU issued
system.cpu.iq.FU_type_0::SimdFloatSqrt              0      0.00%     68.45% # Type of FU issued
system.cpu.iq.FU_type_0::SimdReduceAdd              0      0.00%     68.45% # Type of FU issued
system.cpu.iq.FU_type_0::SimdReduceAlu              0      0.00%     68.45% # Type of FU issued
system.cpu.iq.FU_type_0::SimdReduceCmp              0      0.00%     68.45% # Type of FU issued
system.cpu.iq.FU_type_0::SimdFloatReduceAdd            0      0.00%     68.45% # Type of FU issued
system.cpu.iq.FU_type_0::SimdFloatReduceCmp            0      0.00%     68.45% # Type of FU issued
system.cpu.iq.FU_type_0::SimdAes                    0      0.00%     68.45% # Type of FU issued
system.cpu.iq.FU_type_0::SimdAesMix                 0      0.00%     68.45% # Type of FU issued
system.cpu.iq.FU_type_0::SimdSha1Hash               0      0.00%     68.45% # Type of FU issued
system.cpu.iq.FU_type_0::SimdSha1Hash2              0      0.00%     68.45% # Type of FU issued
system.cpu.iq.FU_type_0::SimdSha256Hash             0      0.00%     68.45% # Type of FU issued
system.cpu.iq.FU_type_0::SimdSha256Hash2            0      0.00%     68.45% # Type of FU issued
system.cpu.iq.FU_type_0::SimdShaSigma2              0      0.00%     68.45% # Type of FU issued
system.cpu.iq.FU_type_0::SimdShaSigma3              0      0.00%     68.45% # Type of FU issued
system.cpu.iq.FU_type_0::SimdPredAlu                0      0.00%     68.45% # Type of FU issued
system.cpu.iq.FU_type_0::MemRead              1807298     15.75%     84.20% # Type of FU issued
system.cpu.iq.FU_type_0::MemWrite             1813431     15.80%    100.00% # Type of FU issued
system.cpu.iq.FU_type_0::FloatMemRead               0      0.00%    100.00% # Type of FU issued
system.cpu.iq.FU_type_0::FloatMemWrite              0      0.00%    100.00% # Type of FU issued
system.cpu.iq.FU_type_0::IprAccess                  0      0.00%    100.00% # Type of FU issued
system.cpu.iq.FU_type_0::InstPrefetch               0      0.00%    100.00% # Type of FU issued
system.cpu.iq.FU_type_0::total               11474514                       # Type of FU issued
system.cpu.iq.fp_alu_accesses                       0                       # Number of floating point alu accesses
system.cpu.iq.fp_inst_queue_reads                   0                       # Number of floating instruction queue reads
system.cpu.iq.fp_inst_queue_wakeup_accesses            0                       # Number of floating instruction queue wakeup accesses
system.cpu.iq.fp_inst_queue_writes                  0                       # Number of floating instruction queue writes
system.cpu.iq.fu_busy_cnt                      207048                       # FU busy when requested
system.cpu.iq.fu_busy_rate                   0.018044                       # FU busy rate (busy events/executed inst)
system.cpu.iq.fu_full::No_OpClass                   0      0.00%      0.00% # attempts to use FU when none available
system.cpu.iq.fu_full::IntAlu                   18804      9.08%      9.08% # attempts to use FU when none available
system.cpu.iq.fu_full::IntMult                      0      0.00%      9.08% # attempts to use FU when none available
system.cpu.iq.fu_full::IntDiv                       0      0.00%      9.08% # attempts to use FU when none available
system.cpu.iq.fu_full::FloatAdd                     0      0.00%      9.08% # attempts to use FU when none available
system.cpu.iq.fu_full::FloatCmp                     0      0.00%      9.08% # attempts to use FU when none available
system.cpu.iq.fu_full::FloatCvt                     0      0.00%      9.08% # attempts to use FU when none available
system.cpu.iq.fu_full::FloatMult                    0      0.00%      9.08% # attempts to use FU when none available
system.cpu.iq.fu_full::FloatMultAcc                 0      0.00%      9.08% # attempts to use FU when none available
system.cpu.iq.fu_full::FloatDiv                     0      0.00%      9.08% # attempts to use FU when none available
system.cpu.iq.fu_full::FloatMisc                    0      0.00%      9.08% # attempts to use FU when none available
system.cpu.iq.fu_full::FloatSqrt                    0      0.00%      9.08% # attempts to use FU when none available
system.cpu.iq.fu_full::SimdAdd                      0      0.00%      9.08% # attempts to use FU when none available
system.cpu.iq.fu_full::SimdAddAcc                   0      0.00%      9.08% # attempts to use FU when none available
system.cpu.iq.fu_full::SimdAlu                      2      0.00%      9.08% # attempts to use FU when none available
system.cpu.iq.fu_full::SimdCmp                      2      0.00%      9.08% # attempts to use FU when none available
system.cpu.iq.fu_full::SimdCvt                      0      0.00%      9.08% # attempts to use FU when none available
system.cpu.iq.fu_full::SimdMisc                     0      0.00%      9.08% # attempts to use FU when none available
system.cpu.iq.fu_full::SimdMult                     0      0.00%      9.08% # attempts to use FU when none available
system.cpu.iq.fu_full::SimdMultAcc                  0      0.00%      9.08% # attempts to use FU when none available
system.cpu.iq.fu_full::SimdShift                    0      0.00%      9.08% # attempts to use FU when none available
system.cpu.iq.fu_full::SimdShiftAcc                 0      0.00%      9.08% # attempts to use FU when none available
system.cpu.iq.fu_full::SimdDiv                      0      0.00%      9.08% # attempts to use FU when none available
system.cpu.iq.fu_full::SimdSqrt                     0      0.00%      9.08% # attempts to use FU when none available
system.cpu.iq.fu_full::SimdFloatAdd                 0      0.00%      9.08% # attempts to use FU when none available
system.cpu.iq.fu_full::SimdFloatAlu                 0      0.00%      9.08% # attempts to use FU when none available
system.cpu.iq.fu_full::SimdFloatCmp                 0      0.00%      9.08% # attempts to use FU when none available
system.cpu.iq.fu_full::SimdFloatCvt                 0      0.00%      9.08% # attempts to use FU when none available
system.cpu.iq.fu_full::SimdFloatDiv                 0      0.00%      9.08% # attempts to use FU when none available
system.cpu.iq.fu_full::SimdFloatMisc                0      0.00%      9.08% # attempts to use FU when none available
system.cpu.iq.fu_full::SimdFloatMult                0      0.00%      9.08% # attempts to use FU when none available
system.cpu.iq.fu_full::SimdFloatMultAcc             0      0.00%      9.08% # attempts to use FU when none available
system.cpu.iq.fu_full::SimdFloatSqrt                0      0.00%      9.08% # attempts to use FU when none available
system.cpu.iq.fu_full::SimdReduceAdd                0      0.00%      9.08% # attempts to use FU when none available
system.cpu.iq.fu_full::SimdReduceAlu                0      0.00%      9.08% # attempts to use FU when none available
system.cpu.iq.fu_full::SimdReduceCmp                0      0.00%      9.08% # attempts to use FU when none available
system.cpu.iq.fu_full::SimdFloatReduceAdd            0      0.00%      9.08% # attempts to use FU when none available
system.cpu.iq.fu_full::SimdFloatReduceCmp            0      0.00%      9.08% # attempts to use FU when none available
system.cpu.iq.fu_full::SimdAes                      0      0.00%      9.08% # attempts to use FU when none available
system.cpu.iq.fu_full::SimdAesMix                   0      0.00%      9.08% # attempts to use FU when none available
system.cpu.iq.fu_full::SimdSha1Hash                 0      0.00%      9.08% # attempts to use FU when none available
system.cpu.iq.fu_full::SimdSha1Hash2                0      0.00%      9.08% # attempts to use FU when none available
system.cpu.iq.fu_full::SimdSha256Hash               0      0.00%      9.08% # attempts to use FU when none available
system.cpu.iq.fu_full::SimdSha256Hash2              0      0.00%      9.08% # attempts to use FU when none available
system.cpu.iq.fu_full::SimdShaSigma2                0      0.00%      9.08% # attempts to use FU when none available
system.cpu.iq.fu_full::SimdShaSigma3                0      0.00%      9.08% # attempts to use FU when none available
system.cpu.iq.fu_full::SimdPredAlu                  0      0.00%      9.08% # attempts to use FU when none available
system.cpu.iq.fu_full::MemRead                  52253     25.24%     34.32% # attempts to use FU when none available
system.cpu.iq.fu_full::MemWrite                135987     65.68%    100.00% # attempts to use FU when none available
system.cpu.iq.fu_full::FloatMemRead                 0      0.00%    100.00% # attempts to use FU when none available
system.cpu.iq.fu_full::FloatMemWrite                0      0.00%    100.00% # attempts to use FU when none available
system.cpu.iq.fu_full::IprAccess                    0      0.00%    100.00% # attempts to use FU when none available
system.cpu.iq.fu_full::InstPrefetch                 0      0.00%    100.00% # attempts to use FU when none available
system.cpu.iq.int_alu_accesses               11458233                       # Number of integer alu accesses
system.cpu.iq.int_inst_queue_reads           33948367                       # Number of integer instruction queue reads
system.cpu.iq.int_inst_queue_wakeup_accesses     11179248                       # Number of integer instruction queue wakeup accesses
system.cpu.iq.int_inst_queue_writes          11238559                       # Number of integer instruction queue writes
system.cpu.iq.iqInstsAdded                   11376524                       # Number of instructions added to the IQ (excludes non-spec)
system.cpu.iq.iqInstsIssued                  11474514                       # Number of instructions issued
system.cpu.iq.iqNonSpecInstsAdded               12173                       # Number of non-speculative instructions added to the IQ
system.cpu.iq.iqSquashedInstsExamined           49913                       # Number of squashed instructions iterated over during squash; mainly for profiling
system.cpu.iq.iqSquashedInstsIssued                97                       # Number of squashed instructions issued
system.cpu.iq.iqSquashedNonSpecRemoved             31                       # Number of squashed non-spec instructions that were removed
system.cpu.iq.iqSquashedOperandsExamined        17581                       # Number of squashed operands that are examined and possibly removed from graph
system.cpu.iq.issued_per_cycle::samples      11214698                       # Number of insts issued each cycle
system.cpu.iq.issued_per_cycle::mean         1.023167                       # Number of insts issued each cycle
system.cpu.iq.issued_per_cycle::stdev        1.773669                       # Number of insts issued each cycle
system.cpu.iq.issued_per_cycle::underflows            0      0.00%      0.00% # Number of insts issued each cycle
system.cpu.iq.issued_per_cycle::0             7377872     65.79%     65.79% # Number of insts issued each cycle
system.cpu.iq.issued_per_cycle::1             1018300      9.08%     74.87% # Number of insts issued each cycle
system.cpu.iq.issued_per_cycle::2              827290      7.38%     82.24% # Number of insts issued each cycle
system.cpu.iq.issued_per_cycle::3              667853      5.96%     88.20% # Number of insts issued each cycle
system.cpu.iq.issued_per_cycle::4              501670      4.47%     92.67% # Number of insts issued each cycle
system.cpu.iq.issued_per_cycle::5              372414      3.32%     95.99% # Number of insts issued each cycle
system.cpu.iq.issued_per_cycle::6              283180      2.53%     98.52% # Number of insts issued each cycle
system.cpu.iq.issued_per_cycle::7               98707      0.88%     99.40% # Number of insts issued each cycle
system.cpu.iq.issued_per_cycle::8               67412      0.60%    100.00% # Number of insts issued each cycle
system.cpu.iq.issued_per_cycle::overflows            0      0.00%    100.00% # Number of insts issued each cycle
system.cpu.iq.issued_per_cycle::min_value            0                       # Number of insts issued each cycle
system.cpu.iq.issued_per_cycle::max_value            8                       # Number of insts issued each cycle
system.cpu.iq.issued_per_cycle::total        11214698                       # Number of insts issued each cycle
system.cpu.iq.rate                           0.969685                       # Inst issue rate
system.cpu.iq.vec_alu_accesses                 215001                       # Number of vector alu accesses
system.cpu.iq.vec_inst_queue_reads             422498                       # Number of vector instruction queue reads
system.cpu.iq.vec_inst_queue_wakeup_accesses       199059                       # Number of vector instruction queue wakeup accesses
system.cpu.iq.vec_inst_queue_writes            200113                       # Number of vector instruction queue writes
system.cpu.itb.accesses                             0                       # DTB accesses
system.cpu.itb.align_faults                         0                       # Number of TLB faults due to alignment restrictions
system.cpu.itb.domain_faults                        0                       # Number of TLB faults due to domain restrictions
system.cpu.itb.flush_entries                        0                       # Number of entries that have been flushed from TLB
system.cpu.itb.flush_tlb                            0                       # Number of times complete TLB was flushed
system.cpu.itb.flush_tlb_asid                       0                       # Number of times TLB was flushed by ASID
system.cpu.itb.flush_tlb_mva                        0                       # Number of times TLB was flushed by MVA
system.cpu.itb.flush_tlb_mva_asid                   0                       # Number of times TLB was flushed by MVA & ASID
system.cpu.itb.hits                                 0                       # DTB hits
system.cpu.itb.inst_accesses                        0                       # ITB inst accesses
system.cpu.itb.inst_hits                            0                       # ITB inst hits
system.cpu.itb.inst_misses                          0                       # ITB inst misses
system.cpu.itb.misses                               0                       # DTB misses
system.cpu.itb.perms_faults                         0                       # Number of TLB faults due to permissions restrictions
system.cpu.itb.prefetch_faults                      0                       # Number of TLB faults due to prefetch
system.cpu.itb.read_accesses                        0                       # DTB read accesses
system.cpu.itb.read_hits                            0                       # DTB read hits
system.cpu.itb.read_misses                          0                       # DTB read misses
system.cpu.itb.stage2_mmu.stage2_tlb.accesses            0                       # DTB accesses
system.cpu.itb.stage2_mmu.stage2_tlb.align_faults            0                       # Number of TLB faults due to alignment restrictions
system.cpu.itb.stage2_mmu.stage2_tlb.domain_faults            0                       # Number of TLB faults due to domain restrictions
system.cpu.itb.stage2_mmu.stage2_tlb.flush_entries            0                       # Number of entries that have been flushed from TLB
system.cpu.itb.stage2_mmu.stage2_tlb.flush_tlb            0                       # Number of times complete TLB was flushed
system.cpu.itb.stage2_mmu.stage2_tlb.flush_tlb_asid            0                       # Number of times TLB was flushed by ASID
system.cpu.itb.stage2_mmu.stage2_tlb.flush_tlb_mva            0                       # Number of times TLB was flushed by MVA
system.cpu.itb.stage2_mmu.stage2_tlb.flush_tlb_mva_asid            0                       # Number of times TLB was flushed by MVA & ASID
system.cpu.itb.stage2_mmu.stage2_tlb.hits            0                       # DTB hits
system.cpu.itb.stage2_mmu.stage2_tlb.inst_accesses            0                       # ITB inst accesses
system.cpu.itb.stage2_mmu.stage2_tlb.inst_hits            0                       # ITB inst hits
system.cpu.itb.stage2_mmu.stage2_tlb.inst_misses            0                       # ITB inst misses
system.cpu.itb.stage2_mmu.stage2_tlb.misses            0                       # DTB misses
system.cpu.itb.stage2_mmu.stage2_tlb.perms_faults            0                       # Number of TLB faults due to permissions restrictions
system.cpu.itb.stage2_mmu.stage2_tlb.prefetch_faults            0                       # Number of TLB faults due to prefetch
system.cpu.itb.stage2_mmu.stage2_tlb.read_accesses            0                       # DTB read accesses
system.cpu.itb.stage2_mmu.stage2_tlb.read_hits            0                       # DTB read hits
system.cpu.itb.stage2_mmu.stage2_tlb.read_misses            0                       # DTB read misses
system.cpu.itb.stage2_mmu.stage2_tlb.walker.walkRequestOrigin_Requested::Data            0                       # Table walker requests started/completed, data/inst
system.cpu.itb.stage2_mmu.stage2_tlb.walker.walkRequestOrigin_Requested::Inst            0                       # Table walker requests started/completed, data/inst
system.cpu.itb.stage2_mmu.stage2_tlb.walker.walkRequestOrigin_Requested::total            0                       # Table walker requests started/completed, data/inst
system.cpu.itb.stage2_mmu.stage2_tlb.walker.walkRequestOrigin_Completed::Data            0                       # Table walker requests started/completed, data/inst
system.cpu.itb.stage2_mmu.stage2_tlb.walker.walkRequestOrigin_Completed::Inst            0                       # Table walker requests started/completed, data/inst
system.cpu.itb.stage2_mmu.stage2_tlb.walker.walkRequestOrigin_Completed::total            0                       # Table walker requests started/completed, data/inst
system.cpu.itb.stage2_mmu.stage2_tlb.walker.walkRequestOrigin::total            0                       # Table walker requests started/completed, data/inst
system.cpu.itb.stage2_mmu.stage2_tlb.walker.walks            0                       # Table walker walks requested
system.cpu.itb.stage2_mmu.stage2_tlb.write_accesses            0                       # DTB write accesses
system.cpu.itb.stage2_mmu.stage2_tlb.write_hits            0                       # DTB write hits
system.cpu.itb.stage2_mmu.stage2_tlb.write_misses            0                       # DTB write misses
system.cpu.itb.walker.walkRequestOrigin_Requested::Data            0                       # Table walker requests started/completed, data/inst
system.cpu.itb.walker.walkRequestOrigin_Requested::Inst            0                       # Table walker requests started/completed, data/inst
system.cpu.itb.walker.walkRequestOrigin_Requested::total            0                       # Table walker requests started/completed, data/inst
system.cpu.itb.walker.walkRequestOrigin_Completed::Data            0                       # Table walker requests started/completed, data/inst
system.cpu.itb.walker.walkRequestOrigin_Completed::Inst            0                       # Table walker requests started/completed, data/inst
system.cpu.itb.walker.walkRequestOrigin_Completed::total            0                       # Table walker requests started/completed, data/inst
system.cpu.itb.walker.walkRequestOrigin::total            0                       # Table walker requests started/completed, data/inst
system.cpu.itb.walker.walks                         0                       # Table walker walks requested
system.cpu.itb.write_accesses                       0                       # DTB write accesses
system.cpu.itb.write_hits                           0                       # DTB write hits
system.cpu.itb.write_misses                         0                       # DTB write misses
system.cpu.memDep0.conflictingLoads             49613                       # Number of conflicting loads.
system.cpu.memDep0.conflictingStores            36325                       # Number of conflicting stores.
system.cpu.memDep0.insertedLoads              1716911                       # Number of loads inserted to the mem dependence unit.
system.cpu.memDep0.insertedStores             1814902                       # Number of stores inserted to the mem dependence unit.
system.cpu.misc_regfile_reads                 7811854                       # number of misc regfile reads
system.cpu.misc_regfile_writes                  48481                       # number of misc regfile writes
system.cpu.numCycles                         11833241                       # number of cpu cycles simulated
system.cpu.numWorkItemsCompleted                    0                       # number of work items this cpu completed
system.cpu.numWorkItemsStarted                      0                       # number of work items this cpu started
system.cpu.rename.BlockCycles                   83578                       # Number of cycles rename is blocking
system.cpu.rename.CommittedMaps              12114552                       # Number of HB maps that are committed
system.cpu.rename.IQFullEvents                    102                       # Number of times rename has blocked due to IQ full
system.cpu.rename.IdleCycles                  6171169                       # Number of cycles rename is idle
system.cpu.rename.LQFullEvents                     35                       # Number of times rename has blocked due to LQ full
system.cpu.rename.ROBFullEvents                     5                       # Number of times rename has blocked due to ROB full
system.cpu.rename.RenameLookups              18390241                       # Number of register rename lookups that rename has made
system.cpu.rename.RenamedInsts               11397884                       # Number of instructions processed by rename
system.cpu.rename.RenamedOperands            12155212                       # Number of destination operands rename has renamed
system.cpu.rename.RunCycles                   2227646                       # Number of cycles rename is running
system.cpu.rename.SQFullEvents                1078477                       # Number of times rename has blocked due to SQ full
system.cpu.rename.SquashCycles                   1370                       # Number of cycles rename is squashing
system.cpu.rename.UnblockCycles               1115745                       # Number of cycles rename is unblocking
system.cpu.rename.UndoneMaps                    40633                       # Number of HB maps that are undone due to squashing
system.cpu.rename.int_rename_lookups         12980798                       # Number of integer rename lookups
system.cpu.rename.serializeStallCycles        1615190                       # count of cycles rename stalled for serializing inst
system.cpu.rename.serializingInsts              36803                       # count of serializing insts renamed
system.cpu.rename.skidInsts                    197996                       # count of insts added to the skid buffer
system.cpu.rename.tempSerializingInsts          12175                       # count of temporary serializing insts renamed
system.cpu.rename.vec_rename_lookups           242099                       # Number of vector rename lookups
system.cpu.rob.rob_reads                     22136602                       # The number of ROB reads
system.cpu.rob.rob_writes                    22784962                       # The number of ROB writes
system.cpu.timesIdled                          173811                       # Number of times that the entire CPU went into an idle state and unscheduled itself
system.cpu.vec_regfile_reads                   241453                       # number of vector regfile reads
system.cpu.vec_regfile_writes                   99973                       # number of vector regfile writes
system.cpu.workload.numSyscalls                    21                       # Number of system calls
system.membus.snoop_filter.hit_multi_requests            0                       # Number of requests hitting in the snoop filter with multiple (>1) holders of the requested data.
system.membus.snoop_filter.hit_multi_snoops            0                       # Number of snoops hitting in the snoop filter with multiple (>1) holders of the requested data.
system.membus.snoop_filter.hit_single_requests            0                       # Number of requests hitting in the snoop filter with a single holder of the requested data.
system.membus.snoop_filter.hit_single_snoops            0                       # Number of snoops hitting in the snoop filter with a single holder of the requested data.
system.membus.snoop_filter.tot_requests         38651                       # Total number of requests made to the snoop filter.
system.membus.snoop_filter.tot_snoops               0                       # Total number of snoops made to the snoop filter.
system.tol2bus.snoop_filter.hit_multi_requests            1                       # Number of requests hitting in the snoop filter with multiple (>1) holders of the requested data.
system.tol2bus.snoop_filter.hit_multi_snoops            0                       # Number of snoops hitting in the snoop filter with multiple (>1) holders of the requested data.
system.tol2bus.snoop_filter.hit_single_requests       268475                       # Number of requests hitting in the snoop filter with a single holder of the requested data.
system.tol2bus.snoop_filter.hit_single_snoops            0                       # Number of snoops hitting in the snoop filter with a single holder of the requested data.
system.tol2bus.snoop_filter.tot_requests       538211                       # Total number of requests made to the snoop filter.
system.tol2bus.snoop_filter.tot_snoops              0                       # Total number of snoops made to the snoop filter.
system.membus.trans_dist::ReadResp               6241                       # Transaction distribution
system.membus.trans_dist::ReadExReq             32392                       # Transaction distribution
system.membus.trans_dist::ReadExResp            32392                       # Transaction distribution
system.membus.trans_dist::ReadSharedReq          6241                       # Transaction distribution
system.membus.trans_dist::InvalidateReq            18                       # Transaction distribution
system.membus.pkt_count_system.l2.mem_side::system.mem_ctrls.port        77284                       # Packet count per connected master and slave (bytes)
system.membus.pkt_count::total                  77284                       # Packet count per connected master and slave (bytes)
system.membus.pkt_size_system.l2.mem_side::system.mem_ctrls.port      2472512                       # Cumulative packet size per connected master and slave (bytes)
system.membus.pkt_size::total                 2472512                       # Cumulative packet size per connected master and slave (bytes)
system.membus.snoops                                0                       # Total snoops (count)
system.membus.snoopTraffic                          0                       # Total snoop traffic (bytes)
system.membus.snoop_fanout::samples             38651                       # Request fanout histogram
system.membus.snoop_fanout::mean                    0                       # Request fanout histogram
system.membus.snoop_fanout::stdev                   0                       # Request fanout histogram
system.membus.snoop_fanout::underflows              0      0.00%      0.00% # Request fanout histogram
system.membus.snoop_fanout::0                   38651    100.00%    100.00% # Request fanout histogram
system.membus.snoop_fanout::1                       0      0.00%    100.00% # Request fanout histogram
system.membus.snoop_fanout::overflows               0      0.00%    100.00% # Request fanout histogram
system.membus.snoop_fanout::min_value               0                       # Request fanout histogram
system.membus.snoop_fanout::max_value               0                       # Request fanout histogram
system.membus.snoop_fanout::total               38651                       # Request fanout histogram
system.membus.reqLayer0.occupancy            44457500                       # Layer occupancy (ticks)
system.membus.reqLayer0.utilization               0.8                       # Layer utilization (%)
system.membus.respLayer1.occupancy          198105750                       # Layer occupancy (ticks)
system.membus.respLayer1.utilization              3.3                       # Layer utilization (%)
system.membus.power_state.pwrStateResidencyTicks::UNDEFINED   5916620000                       # Cumulative time (in ticks) in various power states
system.tol2bus.trans_dist::ReadResp            237323                       # Transaction distribution
system.tol2bus.trans_dist::WritebackDirty        37016                       # Transaction distribution
system.tol2bus.trans_dist::WritebackClean       230145                       # Transaction distribution
system.tol2bus.trans_dist::CleanEvict            1314                       # Transaction distribution
system.tol2bus.trans_dist::ReadExReq            32395                       # Transaction distribution
system.tol2bus.trans_dist::ReadExResp           32395                       # Transaction distribution
system.tol2bus.trans_dist::ReadCleanReq        230382                       # Transaction distribution
system.tol2bus.trans_dist::ReadSharedReq         6941                       # Transaction distribution
system.tol2bus.trans_dist::InvalidateReq           18                       # Transaction distribution
system.tol2bus.trans_dist::InvalidateResp           18                       # Transaction distribution
system.tol2bus.pkt_count_system.cpu.icache.mem_side::system.l2.cpu_side       690909                       # Packet count per connected master and slave (bytes)
system.tol2bus.pkt_count_system.cpu.dcache.mem_side::system.l2.cpu_side       117038                       # Packet count per connected master and slave (bytes)
system.tol2bus.pkt_count::total                807947                       # Packet count per connected master and slave (bytes)
system.tol2bus.pkt_size_system.cpu.icache.mem_side::system.l2.cpu_side     29473728                       # Cumulative packet size per connected master and slave (bytes)
system.tol2bus.pkt_size_system.cpu.dcache.mem_side::system.l2.cpu_side      4886528                       # Cumulative packet size per connected master and slave (bytes)
system.tol2bus.pkt_size::total               34360256                       # Cumulative packet size per connected master and slave (bytes)
system.tol2bus.snoops                               0                       # Total snoops (count)
system.tol2bus.snoopTraffic                         0                       # Total snoop traffic (bytes)
system.tol2bus.snoop_fanout::samples           269736                       # Request fanout histogram
system.tol2bus.snoop_fanout::mean            0.000004                       # Request fanout histogram
system.tol2bus.snoop_fanout::stdev           0.001925                       # Request fanout histogram
system.tol2bus.snoop_fanout::underflows             0      0.00%      0.00% # Request fanout histogram
system.tol2bus.snoop_fanout::0                 269735    100.00%    100.00% # Request fanout histogram
system.tol2bus.snoop_fanout::1                      1      0.00%    100.00% # Request fanout histogram
system.tol2bus.snoop_fanout::2                      0      0.00%    100.00% # Request fanout histogram
system.tol2bus.snoop_fanout::overflows              0      0.00%    100.00% # Request fanout histogram
system.tol2bus.snoop_fanout::min_value              0                       # Request fanout histogram
system.tol2bus.snoop_fanout::max_value              1                       # Request fanout histogram
system.tol2bus.snoop_fanout::total             269736                       # Request fanout histogram
system.tol2bus.reqLayer0.occupancy          536266500                       # Layer occupancy (ticks)
system.tol2bus.reqLayer0.utilization              9.1                       # Layer utilization (%)
system.tol2bus.respLayer1.occupancy          59013000                       # Layer occupancy (ticks)
system.tol2bus.respLayer1.utilization             1.0                       # Layer utilization (%)
system.tol2bus.respLayer0.occupancy         345573000                       # Layer occupancy (ticks)
system.tol2bus.respLayer0.utilization             5.8                       # Layer utilization (%)
system.tol2bus.power_state.pwrStateResidencyTicks::UNDEFINED   5916620000                       # Cumulative time (in ticks) in various power states
system.voltage_domain.voltage                       1                       # Voltage in Volts
system.clk_domain.clock                          1000                       # Clock period in ticks
system.l2.demand_hits::.cpu.inst               229860                       # number of demand (read+write) hits
system.l2.demand_hits::.cpu.data                 1225                       # number of demand (read+write) hits
system.l2.demand_hits::total                   231085                       # number of demand (read+write) hits
system.l2.overall_hits::.cpu.inst              229860                       # number of overall hits
system.l2.overall_hits::.cpu.data                1225                       # number of overall hits
system.l2.overall_hits::total                  231085                       # number of overall hits
system.l2.demand_misses::.cpu.inst                522                       # number of demand (read+write) misses
system.l2.demand_misses::.cpu.data              38111                       # number of demand (read+write) misses
system.l2.demand_misses::total                  38633                       # number of demand (read+write) misses
system.l2.overall_misses::.cpu.inst               522                       # number of overall misses
system.l2.overall_misses::.cpu.data             38111                       # number of overall misses
system.l2.overall_misses::total                 38633                       # number of overall misses
system.l2.demand_miss_latency::.cpu.inst     40824000                       # number of demand (read+write) miss cycles
system.l2.demand_miss_latency::.cpu.data   3854081500                       # number of demand (read+write) miss cycles
system.l2.demand_miss_latency::total       3894905500                       # number of demand (read+write) miss cycles
system.l2.overall_miss_latency::.cpu.inst     40824000                       # number of overall miss cycles
system.l2.overall_miss_latency::.cpu.data   3854081500                       # number of overall miss cycles
system.l2.overall_miss_latency::total      3894905500                       # number of overall miss cycles
system.l2.demand_accesses::.cpu.inst           230382                       # number of demand (read+write) accesses
system.l2.demand_accesses::.cpu.data            39336                       # number of demand (read+write) accesses
system.l2.demand_accesses::total               269718                       # number of demand (read+write) accesses
system.l2.overall_accesses::.cpu.inst          230382                       # number of overall (read+write) accesses
system.l2.overall_accesses::.cpu.data           39336                       # number of overall (read+write) accesses
system.l2.overall_accesses::total              269718                       # number of overall (read+write) accesses
system.l2.demand_miss_rate::.cpu.inst        0.002266                       # miss rate for demand accesses
system.l2.demand_miss_rate::.cpu.data        0.968858                       # miss rate for demand accesses
system.l2.demand_miss_rate::total            0.143235                       # miss rate for demand accesses
system.l2.overall_miss_rate::.cpu.inst       0.002266                       # miss rate for overall accesses
system.l2.overall_miss_rate::.cpu.data       0.968858                       # miss rate for overall accesses
system.l2.overall_miss_rate::total           0.143235                       # miss rate for overall accesses
system.l2.demand_avg_miss_latency::.cpu.inst 78206.896552                       # average overall miss latency
system.l2.demand_avg_miss_latency::.cpu.data 101127.797749                       # average overall miss latency
system.l2.demand_avg_miss_latency::total 100818.095928                       # average overall miss latency
system.l2.overall_avg_miss_latency::.cpu.inst 78206.896552                       # average overall miss latency
system.l2.overall_avg_miss_latency::.cpu.data 101127.797749                       # average overall miss latency
system.l2.overall_avg_miss_latency::total 100818.095928                       # average overall miss latency
system.l2.blocked_cycles::no_mshrs                  0                       # number of cycles access was blocked
system.l2.blocked_cycles::no_targets                0                       # number of cycles access was blocked
system.l2.blocked::no_mshrs                         0                       # number of cycles access was blocked
system.l2.blocked::no_targets                       0                       # number of cycles access was blocked
system.l2.avg_blocked_cycles::no_mshrs            nan                       # average number of cycles each access was blocked
system.l2.avg_blocked_cycles::no_targets          nan                       # average number of cycles each access was blocked
system.l2.demand_mshr_misses::.cpu.inst           522                       # number of demand (read+write) MSHR misses
system.l2.demand_mshr_misses::.cpu.data         38111                       # number of demand (read+write) MSHR misses
system.l2.demand_mshr_misses::total             38633                       # number of demand (read+write) MSHR misses
system.l2.overall_mshr_misses::.cpu.inst          522                       # number of overall MSHR misses
system.l2.overall_mshr_misses::.cpu.data        38111                       # number of overall MSHR misses
system.l2.overall_mshr_misses::total            38633                       # number of overall MSHR misses
system.l2.demand_mshr_miss_latency::.cpu.inst     35604000                       # number of demand (read+write) MSHR miss cycles
system.l2.demand_mshr_miss_latency::.cpu.data   3472971001                       # number of demand (read+write) MSHR miss cycles
system.l2.demand_mshr_miss_latency::total   3508575001                       # number of demand (read+write) MSHR miss cycles
system.l2.overall_mshr_miss_latency::.cpu.inst     35604000                       # number of overall MSHR miss cycles
system.l2.overall_mshr_miss_latency::.cpu.data   3472971001                       # number of overall MSHR miss cycles
system.l2.overall_mshr_miss_latency::total   3508575001                       # number of overall MSHR miss cycles
system.l2.demand_mshr_miss_rate::.cpu.inst     0.002266                       # mshr miss rate for demand accesses
system.l2.demand_mshr_miss_rate::.cpu.data     0.968858                       # mshr miss rate for demand accesses
system.l2.demand_mshr_miss_rate::total       0.143235                       # mshr miss rate for demand accesses
system.l2.overall_mshr_miss_rate::.cpu.inst     0.002266                       # mshr miss rate for overall accesses
system.l2.overall_mshr_miss_rate::.cpu.data     0.968858                       # mshr miss rate for overall accesses
system.l2.overall_mshr_miss_rate::total      0.143235                       # mshr miss rate for overall accesses
system.l2.demand_avg_mshr_miss_latency::.cpu.inst 68206.896552                       # average overall mshr miss latency
system.l2.demand_avg_mshr_miss_latency::.cpu.data 91127.784655                       # average overall mshr miss latency
system.l2.demand_avg_mshr_miss_latency::total 90818.083012                       # average overall mshr miss latency
system.l2.overall_avg_mshr_miss_latency::.cpu.inst 68206.896552                       # average overall mshr miss latency
system.l2.overall_avg_mshr_miss_latency::.cpu.data 91127.784655                       # average overall mshr miss latency
system.l2.overall_avg_mshr_miss_latency::total 90818.083012                       # average overall mshr miss latency
system.l2.replacements                              0                       # number of replacements
system.l2.WritebackDirty_hits::.writebacks        37016                       # number of WritebackDirty hits
system.l2.WritebackDirty_hits::total            37016                       # number of WritebackDirty hits
system.l2.WritebackDirty_accesses::.writebacks        37016                       # number of WritebackDirty accesses(hits+misses)
system.l2.WritebackDirty_accesses::total        37016                       # number of WritebackDirty accesses(hits+misses)
system.l2.WritebackClean_hits::.writebacks       230144                       # number of WritebackClean hits
system.l2.WritebackClean_hits::total           230144                       # number of WritebackClean hits
system.l2.WritebackClean_accesses::.writebacks       230144                       # number of WritebackClean accesses(hits+misses)
system.l2.WritebackClean_accesses::total       230144                       # number of WritebackClean accesses(hits+misses)
system.l2.ReadExReq_hits::.cpu.data                 3                       # number of ReadExReq hits
system.l2.ReadExReq_hits::total                     3                       # number of ReadExReq hits
system.l2.ReadExReq_misses::.cpu.data           32392                       # number of ReadExReq misses
system.l2.ReadExReq_misses::total               32392                       # number of ReadExReq misses
system.l2.ReadExReq_miss_latency::.cpu.data   3195420000                       # number of ReadExReq miss cycles
system.l2.ReadExReq_miss_latency::total    3195420000                       # number of ReadExReq miss cycles
system.l2.ReadExReq_accesses::.cpu.data         32395                       # number of ReadExReq accesses(hits+misses)
system.l2.ReadExReq_accesses::total             32395                       # number of ReadExReq accesses(hits+misses)
system.l2.ReadExReq_miss_rate::.cpu.data     0.999907                       # miss rate for ReadExReq accesses
system.l2.ReadExReq_miss_rate::total         0.999907                       # miss rate for ReadExReq accesses
system.l2.ReadExReq_avg_miss_latency::.cpu.data 98648.431712                       # average ReadExReq miss latency
system.l2.ReadExReq_avg_miss_latency::total 98648.431712                       # average ReadExReq miss latency
system.l2.ReadExReq_mshr_misses::.cpu.data        32392                       # number of ReadExReq MSHR misses
system.l2.ReadExReq_mshr_misses::total          32392                       # number of ReadExReq MSHR misses
system.l2.ReadExReq_mshr_miss_latency::.cpu.data   2871499501                       # number of ReadExReq MSHR miss cycles
system.l2.ReadExReq_mshr_miss_latency::total   2871499501                       # number of ReadExReq MSHR miss cycles
system.l2.ReadExReq_mshr_miss_rate::.cpu.data     0.999907                       # mshr miss rate for ReadExReq accesses
system.l2.ReadExReq_mshr_miss_rate::total     0.999907                       # mshr miss rate for ReadExReq accesses
system.l2.ReadExReq_avg_mshr_miss_latency::.cpu.data 88648.416306                       # average ReadExReq mshr miss latency
system.l2.ReadExReq_avg_mshr_miss_latency::total 88648.416306                       # average ReadExReq mshr miss latency
system.l2.ReadCleanReq_hits::.cpu.inst         229860                       # number of ReadCleanReq hits
system.l2.ReadCleanReq_hits::total             229860                       # number of ReadCleanReq hits
system.l2.ReadCleanReq_misses::.cpu.inst          522                       # number of ReadCleanReq misses
system.l2.ReadCleanReq_misses::total              522                       # number of ReadCleanReq misses
system.l2.ReadCleanReq_miss_latency::.cpu.inst     40824000                       # number of ReadCleanReq miss cycles
system.l2.ReadCleanReq_miss_latency::total     40824000                       # number of ReadCleanReq miss cycles
system.l2.ReadCleanReq_accesses::.cpu.inst       230382                       # number of ReadCleanReq accesses(hits+misses)
system.l2.ReadCleanReq_accesses::total         230382                       # number of ReadCleanReq accesses(hits+misses)
system.l2.ReadCleanReq_miss_rate::.cpu.inst     0.002266                       # miss rate for ReadCleanReq accesses
system.l2.ReadCleanReq_miss_rate::total      0.002266                       # miss rate for ReadCleanReq accesses
system.l2.ReadCleanReq_avg_miss_latency::.cpu.inst 78206.896552                       # average ReadCleanReq miss latency
system.l2.ReadCleanReq_avg_miss_latency::total 78206.896552                       # average ReadCleanReq miss latency
system.l2.ReadCleanReq_mshr_misses::.cpu.inst          522                       # number of ReadCleanReq MSHR misses
system.l2.ReadCleanReq_mshr_misses::total          522                       # number of ReadCleanReq MSHR misses
system.l2.ReadCleanReq_mshr_miss_latency::.cpu.inst     35604000                       # number of ReadCleanReq MSHR miss cycles
system.l2.ReadCleanReq_mshr_miss_latency::total     35604000                       # number of ReadCleanReq MSHR miss cycles
system.l2.ReadCleanReq_mshr_miss_rate::.cpu.inst     0.002266                       # mshr miss rate for ReadCleanReq accesses
system.l2.ReadCleanReq_mshr_miss_rate::total     0.002266                       # mshr miss rate for ReadCleanReq accesses
system.l2.ReadCleanReq_avg_mshr_miss_latency::.cpu.inst 68206.896552                       # average ReadCleanReq mshr miss latency
system.l2.ReadCleanReq_avg_mshr_miss_latency::total 68206.896552                       # average ReadCleanReq mshr miss latency
system.l2.ReadSharedReq_hits::.cpu.data          1222                       # number of ReadSharedReq hits
system.l2.ReadSharedReq_hits::total              1222                       # number of ReadSharedReq hits
[...]
system.cpu.dcache.demand_accesses::.cpu.data      3418135                       # number of demand (read+write) accesses
system.cpu.dcache.demand_accesses::total      3418135                       # number of demand (read+write) accesses
system.cpu.dcache.overall_accesses::.cpu.data      3424958                       # number of overall (read+write) accesses
system.cpu.dcache.overall_accesses::total      3424958                       # number of overall (read+write) accesses
system.cpu.dcache.demand_miss_rate::.cpu.data     0.027207                       # miss rate for demand accesses
system.cpu.dcache.demand_miss_rate::total     0.027207                       # miss rate for demand accesses
system.cpu.dcache.overall_miss_rate::.cpu.data     0.027371                       # miss rate for overall accesses
system.cpu.dcache.overall_miss_rate::total     0.027371                       # miss rate for overall accesses
system.cpu.dcache.demand_avg_miss_latency::.cpu.data 101545.647125                       # average overall miss latency
system.cpu.dcache.demand_avg_miss_latency::total 101545.647125                       # average overall miss latency
system.cpu.dcache.overall_avg_miss_latency::.cpu.data 100734.321830                       # average overall miss latency
system.cpu.dcache.overall_avg_miss_latency::total 100734.321830                       # average overall miss latency
system.cpu.dcache.blocked_cycles::no_mshrs            0                       # number of cycles access was blocked
system.cpu.dcache.blocked_cycles::no_targets            0                       # number of cycles access was blocked
system.cpu.dcache.blocked::no_mshrs                 0                       # number of cycles access was blocked
system.cpu.dcache.blocked::no_targets               0                       # number of cycles access was blocked
system.cpu.dcache.avg_blocked_cycles::no_mshrs          nan                       # average number of cycles each access was blocked
system.cpu.dcache.avg_blocked_cycles::no_targets          nan                       # average number of cycles each access was blocked
system.cpu.dcache.writebacks::.writebacks        37016                       # number of writebacks
system.cpu.dcache.writebacks::total             37016                       # number of writebacks
system.cpu.dcache.demand_mshr_hits::.cpu.data        53645                       # number of demand (read+write) MSHR hits
system.cpu.dcache.demand_mshr_hits::total        53645                       # number of demand (read+write) MSHR hits
system.cpu.dcache.overall_mshr_hits::.cpu.data        53645                       # number of overall MSHR hits
system.cpu.dcache.overall_mshr_hits::total        53645                       # number of overall MSHR hits
system.cpu.dcache.demand_mshr_misses::.cpu.data        39351                       # number of demand (read+write) MSHR misses
system.cpu.dcache.demand_mshr_misses::total        39351                       # number of demand (read+write) MSHR misses
system.cpu.dcache.overall_mshr_misses::.cpu.data        39353                       # number of overall MSHR misses
system.cpu.dcache.overall_mshr_misses::total        39353                       # number of overall MSHR misses
system.cpu.dcache.demand_mshr_miss_latency::.cpu.data   3943122000                       # number of demand (read+write) MSHR miss cycles
system.cpu.dcache.demand_mshr_miss_latency::total   3943122000                       # number of demand (read+write) MSHR miss cycles
system.cpu.dcache.overall_mshr_miss_latency::.cpu.data   3943306500                       # number of overall MSHR miss cycles
system.cpu.dcache.overall_mshr_miss_latency::total   3943306500                       # number of overall MSHR miss cycles
system.cpu.dcache.demand_mshr_miss_rate::.cpu.data     0.011512                       # mshr miss rate for demand accesses
system.cpu.dcache.demand_mshr_miss_rate::total     0.011512                       # mshr miss rate for demand accesses
system.cpu.dcache.overall_mshr_miss_rate::.cpu.data     0.011490                       # mshr miss rate for overall accesses
system.cpu.dcache.overall_mshr_miss_rate::total     0.011490                       # mshr miss rate for overall accesses
system.cpu.dcache.demand_avg_mshr_miss_latency::.cpu.data 100203.857589                       # average overall mshr miss latency
system.cpu.dcache.demand_avg_mshr_miss_latency::total 100203.857589                       # average overall mshr miss latency
system.cpu.dcache.overall_avg_mshr_miss_latency::.cpu.data 100203.453358                       # average overall mshr miss latency
system.cpu.dcache.overall_avg_mshr_miss_latency::total 100203.453358                       # average overall mshr miss latency
system.cpu.dcache.replacements                  38330                       # number of replacements
system.cpu.dcache.ReadReq_hits::.cpu.data      1604614                       # number of ReadReq hits
system.cpu.dcache.ReadReq_hits::total         1604614                       # number of ReadReq hits
system.cpu.dcache.ReadReq_misses::.cpu.data        28365                       # number of ReadReq misses
system.cpu.dcache.ReadReq_misses::total         28365                       # number of ReadReq misses
system.cpu.dcache.ReadReq_miss_latency::.cpu.data   2841936000                       # number of ReadReq miss cycles
system.cpu.dcache.ReadReq_miss_latency::total   2841936000                       # number of ReadReq miss cycles
system.cpu.dcache.ReadReq_accesses::.cpu.data      1632979                       # number of ReadReq accesses(hits+misses)
system.cpu.dcache.ReadReq_accesses::total      1632979                       # number of ReadReq accesses(hits+misses)
system.cpu.dcache.ReadReq_miss_rate::.cpu.data     0.017370                       # miss rate for ReadReq accesses
system.cpu.dcache.ReadReq_miss_rate::total     0.017370                       # miss rate for ReadReq accesses
system.cpu.dcache.ReadReq_avg_miss_latency::.cpu.data 100191.644632                       # average ReadReq miss latency
system.cpu.dcache.ReadReq_avg_miss_latency::total 100191.644632                       # average ReadReq miss latency
system.cpu.dcache.ReadReq_mshr_hits::.cpu.data        17767                       # number of ReadReq MSHR hits
system.cpu.dcache.ReadReq_mshr_hits::total        17767                       # number of ReadReq MSHR hits
system.cpu.dcache.ReadReq_mshr_misses::.cpu.data        10598                       # number of ReadReq MSHR misses
system.cpu.dcache.ReadReq_mshr_misses::total        10598                       # number of ReadReq MSHR misses
system.cpu.dcache.ReadReq_mshr_miss_latency::.cpu.data   1177431000                       # number of ReadReq MSHR miss cycles
system.cpu.dcache.ReadReq_mshr_miss_latency::total   1177431000                       # number of ReadReq MSHR miss cycles
system.cpu.dcache.ReadReq_mshr_miss_rate::.cpu.data     0.006490                       # mshr miss rate for ReadReq accesses
system.cpu.dcache.ReadReq_mshr_miss_rate::total     0.006490                       # mshr miss rate for ReadReq accesses
system.cpu.dcache.ReadReq_avg_mshr_miss_latency::.cpu.data 111099.358370                       # average ReadReq mshr miss latency
system.cpu.dcache.ReadReq_avg_mshr_miss_latency::total 111099.358370                       # average ReadReq mshr miss latency
system.cpu.dcache.WriteReq_hits::.cpu.data      1720525                       # number of WriteReq hits
system.cpu.dcache.WriteReq_hits::total        1720525                       # number of WriteReq hits
system.cpu.dcache.WriteReq_misses::.cpu.data        64618                       # number of WriteReq misses
system.cpu.dcache.WriteReq_misses::total        64618                       # number of WriteReq misses
system.cpu.dcache.WriteReq_miss_latency::.cpu.data   6600988500                       # number of WriteReq miss cycles
system.cpu.dcache.WriteReq_miss_latency::total   6600988500                       # number of WriteReq miss cycles
system.cpu.dcache.WriteReq_accesses::.cpu.data      1785143                       # number of WriteReq accesses(hits+misses)
system.cpu.dcache.WriteReq_accesses::total      1785143                       # number of WriteReq accesses(hits+misses)
system.cpu.dcache.WriteReq_miss_rate::.cpu.data     0.036198                       # miss rate for WriteReq accesses
system.cpu.dcache.WriteReq_miss_rate::total     0.036198                       # miss rate for WriteReq accesses
system.cpu.dcache.WriteReq_avg_miss_latency::.cpu.data 102154.020552                       # average WriteReq miss latency
system.cpu.dcache.WriteReq_avg_miss_latency::total 102154.020552                       # average WriteReq miss latency
system.cpu.dcache.WriteReq_mshr_hits::.cpu.data        35878                       # number of WriteReq MSHR hits
system.cpu.dcache.WriteReq_mshr_hits::total        35878                       # number of WriteReq MSHR hits
system.cpu.dcache.WriteReq_mshr_misses::.cpu.data        28740                       # number of WriteReq MSHR misses
system.cpu.dcache.WriteReq_mshr_misses::total        28740                       # number of WriteReq MSHR misses
system.cpu.dcache.WriteReq_mshr_miss_latency::.cpu.data   2765289500                       # number of WriteReq MSHR miss cycles
system.cpu.dcache.WriteReq_mshr_miss_latency::total   2765289500                       # number of WriteReq MSHR miss cycles
system.cpu.dcache.WriteReq_mshr_miss_rate::.cpu.data     0.016100                       # mshr miss rate for WriteReq accesses
system.cpu.dcache.WriteReq_mshr_miss_rate::total     0.016100                       # mshr miss rate for WriteReq accesses
system.cpu.dcache.WriteReq_avg_mshr_miss_latency::.cpu.data 96217.449548                       # average WriteReq mshr miss latency
system.cpu.dcache.WriteReq_avg_mshr_miss_latency::total 96217.449548                       # average WriteReq mshr miss latency
system.cpu.dcache.SoftPFReq_hits::.cpu.data         6074                       # number of SoftPFReq hits
system.cpu.dcache.SoftPFReq_hits::total          6074                       # number of SoftPFReq hits
system.cpu.dcache.SoftPFReq_misses::.cpu.data          749                       # number of SoftPFReq misses
system.cpu.dcache.SoftPFReq_misses::total          749                       # number of SoftPFReq misses
system.cpu.dcache.SoftPFReq_accesses::.cpu.data         6823                       # number of SoftPFReq accesses(hits+misses)
system.cpu.dcache.SoftPFReq_accesses::total         6823                       # number of SoftPFReq accesses(hits+misses)
system.cpu.dcache.SoftPFReq_miss_rate::.cpu.data     0.109776                       # miss rate for SoftPFReq accesses
system.cpu.dcache.SoftPFReq_miss_rate::total     0.109776                       # miss rate for SoftPFReq accesses
system.cpu.dcache.SoftPFReq_mshr_misses::.cpu.data            2                       # number of SoftPFReq MSHR misses
system.cpu.dcache.SoftPFReq_mshr_misses::total            2                       # number of SoftPFReq MSHR misses
system.cpu.dcache.SoftPFReq_mshr_miss_latency::.cpu.data       184500                       # number of SoftPFReq MSHR miss cycles
system.cpu.dcache.SoftPFReq_mshr_miss_latency::total       184500                       # number of SoftPFReq MSHR miss cycles
system.cpu.dcache.SoftPFReq_mshr_miss_rate::.cpu.data     0.000293                       # mshr miss rate for SoftPFReq accesses
system.cpu.dcache.SoftPFReq_mshr_miss_rate::total     0.000293                       # mshr miss rate for SoftPFReq accesses
system.cpu.dcache.SoftPFReq_avg_mshr_miss_latency::.cpu.data        92250                       # average SoftPFReq mshr miss latency
system.cpu.dcache.SoftPFReq_avg_mshr_miss_latency::total        92250                       # average SoftPFReq mshr miss latency
system.cpu.dcache.WriteLineReq_misses::.cpu.data           13                       # number of WriteLineReq misses
system.cpu.dcache.WriteLineReq_misses::total           13                       # number of WriteLineReq misses
system.cpu.dcache.WriteLineReq_miss_latency::.cpu.data       414500                       # number of WriteLineReq miss cycles
system.cpu.dcache.WriteLineReq_miss_latency::total       414500                       # number of WriteLineReq miss cycles
system.cpu.dcache.WriteLineReq_accesses::.cpu.data           13                       # number of WriteLineReq accesses(hits+misses)
system.cpu.dcache.WriteLineReq_accesses::total           13                       # number of WriteLineReq accesses(hits+misses)
system.cpu.dcache.WriteLineReq_miss_rate::.cpu.data            1                       # miss rate for WriteLineReq accesses
system.cpu.dcache.WriteLineReq_miss_rate::total            1                       # miss rate for WriteLineReq accesses
system.cpu.dcache.WriteLineReq_avg_miss_latency::.cpu.data 31884.615385                       # average WriteLineReq miss latency
system.cpu.dcache.WriteLineReq_avg_miss_latency::total 31884.615385                       # average WriteLineReq miss latency
system.cpu.dcache.WriteLineReq_mshr_misses::.cpu.data           13                       # number of WriteLineReq MSHR misses
system.cpu.dcache.WriteLineReq_mshr_misses::total           13                       # number of WriteLineReq MSHR misses
system.cpu.dcache.WriteLineReq_mshr_miss_latency::.cpu.data       401500                       # number of WriteLineReq MSHR miss cycles
system.cpu.dcache.WriteLineReq_mshr_miss_latency::total       401500                       # number of WriteLineReq MSHR miss cycles
system.cpu.dcache.WriteLineReq_mshr_miss_rate::.cpu.data            1                       # mshr miss rate for WriteLineReq accesses
system.cpu.dcache.WriteLineReq_mshr_miss_rate::total            1                       # mshr miss rate for WriteLineReq accesses
system.cpu.dcache.WriteLineReq_avg_mshr_miss_latency::.cpu.data 30884.615385                       # average WriteLineReq mshr miss latency
system.cpu.dcache.WriteLineReq_avg_mshr_miss_latency::total 30884.615385                       # average WriteLineReq mshr miss latency
system.cpu.dcache.LoadLockedReq_hits::.cpu.data        12137                       # number of LoadLockedReq hits
system.cpu.dcache.LoadLockedReq_hits::total        12137                       # number of LoadLockedReq hits
system.cpu.dcache.LoadLockedReq_misses::.cpu.data            2                       # number of LoadLockedReq misses
system.cpu.dcache.LoadLockedReq_misses::total            2                       # number of LoadLockedReq misses
system.cpu.dcache.LoadLockedReq_miss_latency::.cpu.data       172500                       # number of LoadLockedReq miss cycles
system.cpu.dcache.LoadLockedReq_miss_latency::total       172500                       # number of LoadLockedReq miss cycles
system.cpu.dcache.LoadLockedReq_accesses::.cpu.data        12139                       # number of LoadLockedReq accesses(hits+misses)
system.cpu.dcache.LoadLockedReq_accesses::total        12139                       # number of LoadLockedReq accesses(hits+misses)
system.cpu.dcache.LoadLockedReq_miss_rate::.cpu.data     0.000165                       # miss rate for LoadLockedReq accesses
system.cpu.dcache.LoadLockedReq_miss_rate::total     0.000165                       # miss rate for LoadLockedReq accesses
system.cpu.dcache.LoadLockedReq_avg_miss_latency::.cpu.data        86250                       # average LoadLockedReq miss latency
system.cpu.dcache.LoadLockedReq_avg_miss_latency::total        86250                       # average LoadLockedReq miss latency
system.cpu.dcache.LoadLockedReq_mshr_hits::.cpu.data            1                       # number of LoadLockedReq MSHR hits
system.cpu.dcache.LoadLockedReq_mshr_hits::total            1                       # number of LoadLockedReq MSHR hits
system.cpu.dcache.LoadLockedReq_mshr_misses::.cpu.data            1                       # number of LoadLockedReq MSHR misses
system.cpu.dcache.LoadLockedReq_mshr_misses::total            1                       # number of LoadLockedReq MSHR misses
system.cpu.dcache.LoadLockedReq_mshr_miss_latency::.cpu.data        99000                       # number of LoadLockedReq MSHR miss cycles
system.cpu.dcache.LoadLockedReq_mshr_miss_latency::total        99000                       # number of LoadLockedReq MSHR miss cycles
system.cpu.dcache.LoadLockedReq_mshr_miss_rate::.cpu.data     0.000082                       # mshr miss rate for LoadLockedReq accesses
system.cpu.dcache.LoadLockedReq_mshr_miss_rate::total     0.000082                       # mshr miss rate for LoadLockedReq accesses
system.cpu.dcache.LoadLockedReq_avg_mshr_miss_latency::.cpu.data        99000                       # average LoadLockedReq mshr miss latency
system.cpu.dcache.LoadLockedReq_avg_mshr_miss_latency::total        99000                       # average LoadLockedReq mshr miss latency
system.cpu.dcache.StoreCondReq_hits::.cpu.data        12120                       # number of StoreCondReq hits
system.cpu.dcache.StoreCondReq_hits::total        12120                       # number of StoreCondReq hits
system.cpu.dcache.StoreCondReq_accesses::.cpu.data        12120                       # number of StoreCondReq accesses(hits+misses)
system.cpu.dcache.StoreCondReq_accesses::total        12120                       # number of StoreCondReq accesses(hits+misses)
system.cpu.dcache.power_state.pwrStateResidencyTicks::UNDEFINED   5916620000                       # Cumulative time (in ticks) in various power states
system.cpu.dcache.tags.tagsinuse          1009.183747                       # Cycle average of tags in use
system.cpu.dcache.tags.total_refs             3394824                       # Total number of references to valid blocks.
system.cpu.dcache.tags.sampled_refs             39354                       # Sample count of references to valid blocks.
system.cpu.dcache.tags.avg_refs             86.263760                       # Average number of references to valid blocks.
system.cpu.dcache.tags.warmup_cycle            176500                       # Cycle when the warmup percentage was hit.
system.cpu.dcache.tags.occ_blocks::.cpu.data  1009.183747                       # Average occupied blocks per requestor
system.cpu.dcache.tags.occ_percent::.cpu.data     0.985531                       # Average percentage of cache occupancy
system.cpu.dcache.tags.occ_percent::total     0.985531                       # Average percentage of cache occupancy
system.cpu.dcache.tags.occ_task_id_blocks::1024         1024                       # Occupied blocks per task id
system.cpu.dcache.tags.age_task_id_blocks_1024::0           63                       # Occupied blocks per task id
system.cpu.dcache.tags.age_task_id_blocks_1024::1          576                       # Occupied blocks per task id
system.cpu.dcache.tags.age_task_id_blocks_1024::2          344                       # Occupied blocks per task id
system.cpu.dcache.tags.age_task_id_blocks_1024::3           41                       # Occupied blocks per task id
system.cpu.dcache.tags.occ_task_id_percent::1024            1                       # Percentage of cache occupancy per task id
system.cpu.dcache.tags.tag_accesses           6937788                       # Number of tag accesses
system.cpu.dcache.tags.data_accesses          6937788                       # Number of data accesses
system.cpu.dcache.tags.power_state.pwrStateResidencyTicks::UNDEFINED   5916620000                       # Cumulative time (in ticks) in various power states
system.cpu.power_state.pwrStateResidencyTicks::ON   5916620000                       # Cumulative time (in ticks) in various power states

---------- End Simulation Statistics   ----------
