
---------- Begin Simulation Statistics ----------
final_tick                                  633600000                       # Number of ticks from beginning of simulation (restored from checkpoints and never reset)
host_inst_rate                                 158082                       # Simulator instruction rate (inst/s)
host_mem_usage                                 860248                       # Number of bytes of host memory used
host_op_rate                                   179325                       # Simulator op (including micro ops) rate (op/s)
host_seconds                                     6.33                       # Real time elapsed on the host
host_tick_rate                              100157054                       # Simulator tick rate (ticks/s)
sim_freq                                 1000000000000                       # Frequency of simulated ticks
sim_insts                                     1000003                       # Number of instructions simulated
sim_ops                                       1134415                       # Number of ops (including micro ops) simulated
sim_seconds                                  0.000634                       # Number of seconds simulated
sim_ticks                                   633600000                       # Number of ticks simulated
system.cpu.branchPred.BTBCorrect                    0                       # Number of correct BTB predictions (this stat may not work properly.
system.cpu.branchPred.BTBHitPct             98.986348                       # BTB Hit Percentage
system.cpu.branchPred.BTBHits                   91794                       # Number of BTB hits
system.cpu.branchPred.BTBLookups                92734                       # Number of BTB lookups
system.cpu.branchPred.RASInCorrect                  1                       # Number of incorrect RAS predictions.
system.cpu.branchPred.condIncorrect               794                       # Number of conditional branches incorrect
system.cpu.branchPred.condPredicted            181447                       # Number of conditional branches predicted
system.cpu.branchPred.indirectHits               3017                       # Number of indirect target hits.
system.cpu.branchPred.indirectLookups            3193                       # Number of indirect predictor lookups.
system.cpu.branchPred.indirectMisses              176                       # Number of indirect misses.
system.cpu.branchPred.lookups                  226267                       # Number of BP lookups
system.cpu.branchPred.usedRAS                   11233                       # Number of times the RAS was used to get a target.
system.cpu.branchPredindirectMispredicted           57                       # Number of mispredicted indirect branches.
system.cpu.cc_regfile_reads                    468582                       # number of cc regfile reads
system.cpu.cc_regfile_writes                   444354                       # number of cc regfile writes
system.cpu.commit.amos                              0                       # Number of atomic instructions committed
system.cpu.commit.branchMispredicts               548                       # The number of times a branch was mispredicted
system.cpu.commit.branches                     222076                       # Number of branches committed
system.cpu.commit.bw_lim_events                 46049                       # number cycles where commit BW limit reached
system.cpu.commit.commitNonSpecStalls            1246                       # The number of times commit has been forced to stall to communicate backwards
system.cpu.commit.commitSquashedInsts           12300                       # The number of squashed insts skipped by commit
system.cpu.commit.committedInsts              1000625                       # Number of instructions committed
system.cpu.commit.committedOps                1135037                       # Number of ops (including micro ops) committed
system.cpu.commit.committed_per_cycle::samples      1163572                       # Number of insts commited each cycle
system.cpu.commit.committed_per_cycle::mean     0.975476                       # Number of insts commited each cycle
system.cpu.commit.committed_per_cycle::stdev     1.989165                       # Number of insts commited each cycle
system.cpu.commit.committed_per_cycle::underflows            0      0.00%      0.00% # Number of insts commited each cycle
system.cpu.commit.committed_per_cycle::0       795066     68.33%     68.33% # Number of insts commited each cycle
system.cpu.commit.committed_per_cycle::1       144122     12.39%     80.72% # Number of insts commited each cycle
system.cpu.commit.committed_per_cycle::2        67635      5.81%     86.53% # Number of insts commited each cycle
system.cpu.commit.committed_per_cycle::3        38067      3.27%     89.80% # Number of insts commited each cycle
system.cpu.commit.committed_per_cycle::4        30280      2.60%     92.40% # Number of insts commited each cycle
system.cpu.commit.committed_per_cycle::5        13011      1.12%     93.52% # Number of insts commited each cycle
system.cpu.commit.committed_per_cycle::6        18517      1.59%     95.11% # Number of insts commited each cycle
system.cpu.commit.committed_per_cycle::7        10825      0.93%     96.04% # Number of insts commited each cycle
system.cpu.commit.committed_per_cycle::8        46049      3.96%    100.00% # Number of insts commited each cycle
system.cpu.commit.committed_per_cycle::overflows            0      0.00%    100.00% # Number of insts commited each cycle
system.cpu.commit.committed_per_cycle::min_value            0                       # Number of insts commited each cycle
system.cpu.commit.committed_per_cycle::max_value            8                       # Number of insts commited each cycle
system.cpu.commit.committed_per_cycle::total      1163572                       # Number of insts commited each cycle
system.cpu.commit.fp_insts                          0                       # Number of committed floating point instructions.
system.cpu.commit.function_calls                10973                       # Number of function calls committed.
system.cpu.commit.int_insts                    986963                       # Number of committed integer instructions.
system.cpu.commit.loads                        170933                       # Number of loads committed
system.cpu.commit.membars                        1232                       # Number of memory barriers committed
system.cpu.commit.op_class_0::No_OpClass          831      0.07%      0.07% # Class of committed instruction
system.cpu.commit.op_class_0::IntAlu           769647     67.81%     67.88% # Class of committed instruction
system.cpu.commit.op_class_0::IntMult            6011      0.53%     68.41% # Class of committed instruction
system.cpu.commit.op_class_0::IntDiv                3      0.00%     68.41% # Class of committed instruction
system.cpu.commit.op_class_0::FloatAdd              0      0.00%     68.41% # Class of committed instruction
system.cpu.commit.op_class_0::FloatCmp              0      0.00%     68.41% # Class of committed instruction
system.cpu.commit.op_class_0::FloatCvt              0      0.00%     68.41% # Class of committed instruction
system.cpu.commit.op_class_0::FloatMult             0      0.00%     68.41% # Class of committed instruction
system.cpu.commit.op_class_0::FloatMultAcc            0      0.00%     68.41% # Class of committed instruction
system.cpu.commit.op_class_0::FloatDiv              0      0.00%     68.41% # Class of committed instruction
system.cpu.commit.op_class_0::FloatMisc             0      0.00%     68.41% # Class of committed instruction
system.cpu.commit.op_class_0::FloatSqrt             0      0.00%     68.41% # Class of committed instruction
system.cpu.commit.op_class_0::SimdAdd            1899      0.17%     68.58% # Class of committed instruction
system.cpu.commit.op_class_0::SimdAddAcc            0      0.00%     68.58% # Class of committed instruction
system.cpu.commit.op_class_0::SimdAlu            1895      0.17%     68.75% # Class of committed instruction
system.cpu.commit.op_class_0::SimdCmp            1672      0.15%     68.89% # Class of committed instruction
system.cpu.commit.op_class_0::SimdCvt               0      0.00%     68.89% # Class of committed instruction
system.cpu.commit.op_class_0::SimdMisc           2269      0.20%     69.09% # Class of committed instruction
system.cpu.commit.op_class_0::SimdMult              0      0.00%     69.09% # Class of committed instruction
system.cpu.commit.op_class_0::SimdMultAcc            0      0.00%     69.09% # Class of committed instruction
system.cpu.commit.op_class_0::SimdShift             0      0.00%     69.09% # Class of committed instruction
system.cpu.commit.op_class_0::SimdShiftAcc            0      0.00%     69.09% # Class of committed instruction
system.cpu.commit.op_class_0::SimdDiv               0      0.00%     69.09% # Class of committed instruction
system.cpu.commit.op_class_0::SimdSqrt              0      0.00%     69.09% # Class of committed instruction
system.cpu.commit.op_class_0::SimdFloatAdd            0      0.00%     69.09% # Class of committed instruction
system.cpu.commit.op_class_0::SimdFloatAlu            0      0.00%     69.09% # Class of committed instruction
system.cpu.commit.op_class_0::SimdFloatCmp            0      0.00%     69.09% # Class of committed instruction
system.cpu.commit.op_class_0::SimdFloatCvt            0      0.00%     69.09% # Class of committed instruction
system.cpu.commit.op_class_0::SimdFloatDiv            0      0.00%     69.09% # Class of committed instruction
system.cpu.commit.op_class_0::SimdFloatMisc            0      0.00%     69.09% # Class of committed instruction
system.cpu.commit.op_class_0::SimdFloatMult            0      0.00%     69.09% # Class of committed instruction
system.cpu.commit.op_class_0::SimdFloatMultAcc            0      0.00%     69.09% # Class of committed instruction
system.cpu.commit.op_class_0::SimdFloatSqrt            0      0.00%     69.09% # Class of committed instruction
system.cpu.commit.op_class_0::SimdReduceAdd            0      0.00%     69.09% # Class of committed instruction
system.cpu.commit.op_class_0::SimdReduceAlu            0      0.00%     69.09% # Class of committed instruction
system.cpu.commit.op_class_0::SimdReduceCmp            0      0.00%     69.09% # Class of committed instruction
system.cpu.commit.op_class_0::SimdFloatReduceAdd            0      0.00%     69.09% # Class of committed instruction
system.cpu.commit.op_class_0::SimdFloatReduceCmp            0      0.00%     69.09% # Class of committed instruction
system.cpu.commit.op_class_0::SimdAes               0      0.00%     69.09% # Class of committed instruction
system.cpu.commit.op_class_0::SimdAesMix            0      0.00%     69.09% # Class of committed instruction
system.cpu.commit.op_class_0::SimdSha1Hash            0      0.00%     69.09% # Class of committed instruction
system.cpu.commit.op_class_0::SimdSha1Hash2            0      0.00%     69.09% # Class of committed instruction
system.cpu.commit.op_class_0::SimdSha256Hash            0      0.00%     69.09% # Class of committed instruction
system.cpu.commit.op_class_0::SimdSha256Hash2            0      0.00%     69.09% # Class of committed instruction
system.cpu.commit.op_class_0::SimdShaSigma2            0      0.00%     69.09% # Class of committed instruction
system.cpu.commit.op_class_0::SimdShaSigma3            0      0.00%     69.09% # Class of committed instruction
system.cpu.commit.op_class_0::SimdPredAlu            0      0.00%     69.09% # Class of committed instruction
system.cpu.commit.op_class_0::MemRead          170933     15.06%     84.15% # Class of committed instruction
system.cpu.commit.op_class_0::MemWrite         179877     15.85%    100.00% # Class of committed instruction
system.cpu.commit.op_class_0::FloatMemRead            0      0.00%    100.00% # Class of committed instruction
system.cpu.commit.op_class_0::FloatMemWrite            0      0.00%    100.00% # Class of committed instruction
system.cpu.commit.op_class_0::IprAccess             0      0.00%    100.00% # Class of committed instruction
system.cpu.commit.op_class_0::InstPrefetch            0      0.00%    100.00% # Class of committed instruction
system.cpu.commit.op_class_0::total           1135037                       # Class of committed instruction
system.cpu.commit.refs                         350810                       # Number of memory references committed
system.cpu.commit.swp_count                         0                       # Number of s/w prefetches committed
system.cpu.commit.vec_insts                     19916                       # Number of committed Vector instructions.
system.cpu.committedInsts                     1000003                       # Number of Instructions Simulated
system.cpu.committedOps                       1134415                       # Number of Ops (including micro ops) Simulated
system.cpu.cpi                               1.267197                       # CPI: Cycles Per Instruction
system.cpu.cpi_total                         1.267197                       # CPI: Total CPI of All Threads
system.cpu.decode.BlockedCycles                321806                       # Number of cycles decode is blocked
system.cpu.decode.BranchMispred                   249                       # Number of times decode detected a branch misprediction
system.cpu.decode.BranchResolved                91813                       # Number of times decode resolved a branch
system.cpu.decode.DecodedInsts                1151648                       # Number of instructions handled by decode
system.cpu.decode.IdleCycles                   618050                       # Number of cycles decode is idle
system.cpu.decode.RunCycles                    219689                       # Number of cycles decode is running
system.cpu.decode.SquashCycles                    647                       # Number of cycles decode is squashing
system.cpu.decode.SquashedInsts                   925                       # Number of squashed instructions handled by decode
system.cpu.decode.UnblockCycles                  5285                       # Number of cycles decode is unblocking
system.cpu.dtb.accesses                             0                       # DTB accesses
system.cpu.dtb.align_faults                         0                       # Number of TLB faults due to alignment restrictions
system.cpu.dtb.domain_faults                        0                       # Number of TLB faults due to domain restrictions
system.cpu.dtb.flush_entries                        0                       # Number of entries that have been flushed from TLB
system.cpu.dtb.flush_tlb                            0                       # Number of times complete TLB was flushed
system.cpu.dtb.flush_tlb_asid                       0                       # Number of times TLB was flushed by ASID
system.cpu.dtb.flush_tlb_mva                        0                       # Number of times TLB was flushed by MVA
system.cpu.dtb.flush_tlb_mva_asid                   0                       # Number of times TLB was flushed by MVA & ASID
system.cpu.dtb.hits                                 0                       # DTB hits
system.cpu.dtb.inst_accesses                        0                       # ITB inst accesses
system.cpu.dtb.inst_hits                            0                       # ITB inst hits
system.cpu.dtb.inst_misses                          0                       # ITB inst misses
system.cpu.dtb.misses                               0                       # DTB misses
system.cpu.dtb.perms_faults                         0                       # Number of TLB faults due to permissions restrictions
system.cpu.dtb.prefetch_faults                      0                       # Number of TLB faults due to prefetch
system.cpu.dtb.read_accesses                        0                       # DTB read accesses
system.cpu.dtb.read_hits                            0                       # DTB read hits
system.cpu.dtb.read_misses                          0                       # DTB read misses
system.cpu.dtb.stage2_mmu.stage2_tlb.accesses            0                       # DTB accesses
system.cpu.dtb.stage2_mmu.stage2_tlb.align_faults            0                       # Number of TLB faults due to alignment restrictions
system.cpu.dtb.stage2_mmu.stage2_tlb.domain_faults            0                       # Number of TLB faults due to domain restrictions
system.cpu.dtb.stage2_mmu.stage2_tlb.flush_entries            0                       # Number of entries that have been flushed from TLB
system.cpu.dtb.stage2_mmu.stage2_tlb.flush_tlb            0                       # Number of times complete TLB was flushed
system.cpu.dtb.stage2_mmu.stage2_tlb.flush_tlb_asid            0                       # Number of times TLB was flushed by ASID
system.cpu.dtb.stage2_mmu.stage2_tlb.flush_tlb_mva            0                       # Number of times TLB was flushed by MVA
system.cpu.dtb.stage2_mmu.stage2_tlb.flush_tlb_mva_asid            0                       # Number of times TLB was flushed by MVA & ASID
system.cpu.dtb.stage2_mmu.stage2_tlb.hits            0                       # DTB hits
system.cpu.dtb.stage2_mmu.stage2_tlb.inst_accesses            0                       # ITB inst accesses
system.cpu.dtb.stage2_mmu.stage2_tlb.inst_hits            0                       # ITB inst hits
system.cpu.dtb.stage2_mmu.stage2_tlb.inst_misses            0                       # ITB inst misses
system.cpu.dtb.stage2_mmu.stage2_tlb.misses            0                       # DTB misses
system.cpu.dtb.stage2_mmu.stage2_tlb.perms_faults            0                       # Number of TLB faults due to permissions restrictions
system.cpu.dtb.stage2_mmu.stage2_tlb.prefetch_faults            0                       # Number of TLB faults due to prefetch
system.cpu.dtb.stage2_mmu.stage2_tlb.read_accesses            0                       # DTB read accesses
system.cpu.dtb.stage2_mmu.stage2_tlb.read_hits            0                       # DTB read hits
system.cpu.dtb.stage2_mmu.stage2_tlb.read_misses            0                       # DTB read misses
system.cpu.dtb.stage2_mmu.stage2_tlb.walker.walkRequestOrigin_Requested::Data            0                       # Table walker requests started/completed, data/inst
system.cpu.dtb.stage2_mmu.stage2_tlb.walker.walkRequestOrigin_Requested::Inst            0                       # Table walker requests started/completed, data/inst
system.cpu.dtb.stage2_mmu.stage2_tlb.walker.walkRequestOrigin_Requested::total            0                       # Table walker requests started/completed, data/inst
system.cpu.dtb.stage2_mmu.stage2_tlb.walker.walkRequestOrigin_Completed::Data            0                       # Table walker requests started/completed, data/inst
system.cpu.dtb.stage2_mmu.stage2_tlb.walker.walkRequestOrigin_Completed::Inst            0                       # Table walker requests started/completed, data/inst
system.cpu.dtb.stage2_mmu.stage2_tlb.walker.walkRequestOrigin_Completed::total            0                       # Table walker requests started/completed, data/inst
system.cpu.dtb.stage2_mmu.stage2_tlb.walker.walkRequestOrigin::total            0                       # Table walker requests started/completed, data/inst
system.cpu.dtb.stage2_mmu.stage2_tlb.walker.walks            0                       # Table walker walks requested
system.cpu.dtb.stage2_mmu.stage2_tlb.write_accesses            0                       # DTB write accesses
system.cpu.dtb.stage2_mmu.stage2_tlb.write_hits            0                       # DTB write hits
system.cpu.dtb.stage2_mmu.stage2_tlb.write_misses            0                       # DTB write misses
system.cpu.dtb.walker.walkRequestOrigin_Requested::Data            0                       # Table walker requests started/completed, data/inst
system.cpu.dtb.walker.walkRequestOrigin_Requested::Inst            0                       # Table walker requests started/completed, data/inst
system.cpu.dtb.walker.walkRequestOrigin_Requested::total            0                       # Table walker requests started/completed, data/inst
system.cpu.dtb.walker.walkRequestOrigin_Completed::Data            0                       # Table walker requests started/completed, data/inst
system.cpu.dtb.walker.walkRequestOrigin_Completed::Inst            0                       # Table walker requests started/completed, data/inst
system.cpu.dtb.walker.walkRequestOrigin_Completed::total            0                       # Table walker requests started/completed, data/inst
system.cpu.dtb.walker.walkRequestOrigin::total            0                       # Table walker requests started/completed, data/inst
system.cpu.dtb.walker.walks                         0                       # Table walker walks requested
system.cpu.dtb.write_accesses                       0                       # DTB write accesses
system.cpu.dtb.write_hits                           0                       # DTB write hits
system.cpu.dtb.write_misses                         0                       # DTB write misses
system.cpu.fetch.Branches                      226267                       # Number of branches that fetch encountered
system.cpu.fetch.CacheLines                    150370                       # Number of cache lines fetched
system.cpu.fetch.Cycles                        490046                       # Number of cycles fetch has run and was not squashing or blocked
system.cpu.fetch.IcacheSquashes                   535                       # Number of outstanding Icache misses that were squashed
system.cpu.fetch.IcacheWaitRetryStallCycles           30                       # Number of stall cycles due to full MSHR
system.cpu.fetch.Insts                        1021673                       # Number of instructions fetch has processed
system.cpu.fetch.MiscStallCycles                    2                       # Number of cycles fetch has spent waiting on interrupts, or bad addresses, or out of MSHRs
system.cpu.fetch.SquashCycles                    1786                       # Number of cycles fetch has spent squashing
system.cpu.fetch.branchRate                  0.178557                       # Number of branch fetches per cycle
system.cpu.fetch.icacheStallCycles             674506                       # Number of cycles fetch is stalled on an Icache miss
system.cpu.fetch.predictedBranches             106044                       # Number of branches that fetch has predicted taken
system.cpu.fetch.rate                        0.806244                       # Number of inst fetches per cycle
system.cpu.fetch.rateDist::samples            1165477                       # Number of instructions fetched each cycle (Total)
system.cpu.fetch.rateDist::mean              0.994382                       # Number of instructions fetched each cycle (Total)
system.cpu.fetch.rateDist::stdev             2.308835                       # Number of instructions fetched each cycle (Total)
system.cpu.fetch.rateDist::underflows               0      0.00%      0.00% # Number of instructions fetched each cycle (Total)
system.cpu.fetch.rateDist::0                   936927     80.39%     80.39% # Number of instructions fetched each cycle (Total)
system.cpu.fetch.rateDist::1                    23263      2.00%     82.39% # Number of instructions fetched each cycle (Total)
system.cpu.fetch.rateDist::2                    21278      1.83%     84.21% # Number of instructions fetched each cycle (Total)
system.cpu.fetch.rateDist::3                    29174      2.50%     86.71% # Number of instructions fetched each cycle (Total)
system.cpu.fetch.rateDist::4                    36982      3.17%     89.89% # Number of instructions fetched each cycle (Total)
system.cpu.fetch.rateDist::5                    20768      1.78%     91.67% # Number of instructions fetched each cycle (Total)
system.cpu.fetch.rateDist::6                     6424      0.55%     92.22% # Number of instructions fetched each cycle (Total)
system.cpu.fetch.rateDist::7                    10012      0.86%     93.08% # Number of instructions fetched each cycle (Total)
system.cpu.fetch.rateDist::8                    80649      6.92%    100.00% # Number of instructions fetched each cycle (Total)
system.cpu.fetch.rateDist::overflows                0      0.00%    100.00% # Number of instructions fetched each cycle (Total)
system.cpu.fetch.rateDist::min_value                0                       # Number of instructions fetched each cycle (Total)
system.cpu.fetch.rateDist::max_value                8                       # Number of instructions fetched each cycle (Total)
system.cpu.fetch.rateDist::total              1165477                       # Number of instructions fetched each cycle (Total)
system.cpu.idleCycles                          101724                       # Total number of cycles that the CPU has spent unscheduled due to idling
system.cpu.iew.branchMispredicts                  631                       # Number of branch mispredicts detected at execute
system.cpu.iew.exec_branches                   223231                       # Number of branches executed
system.cpu.iew.exec_nop                           652                       # number of nop insts executed
system.cpu.iew.exec_rate                     0.913708                       # Inst execution rate
system.cpu.iew.exec_refs                       368397                       # number of memory reference insts executed
system.cpu.iew.exec_stores                     181874                       # Number of stores executed
system.cpu.iew.exec_swp                             0                       # number of swp insts executed
system.cpu.iew.iewBlockCycles                    1539                       # Number of cycles IEW is blocking
system.cpu.iew.iewDispLoadInsts                172809                       # Number of dispatched load instructions
system.cpu.iew.iewDispNonSpecInsts               1268                       # Number of dispatched non-speculative instructions
system.cpu.iew.iewDispSquashedInsts               216                       # Number of squashed instructions skipped by dispatch
system.cpu.iew.iewDispStoreInsts               182594                       # Number of dispatched store instructions
system.cpu.iew.iewDispatchedInsts             1147880                       # Number of instructions dispatched to IQ
system.cpu.iew.iewExecLoadInsts                186523                       # Number of load instructions executed
system.cpu.iew.iewExecSquashedInsts               711                       # Number of squashed instructions skipped in execute
system.cpu.iew.iewExecutedInsts               1157852                       # Number of executed instructions
system.cpu.iew.iewIQFullEvents                     12                       # Number of times the IQ has become full, causing a stall
system.cpu.iew.iewIdleCycles                        0                       # Number of cycles IEW is idle
system.cpu.iew.iewLSQFullEvents                  9584                       # Number of times the LSQ has become full, causing a stall
system.cpu.iew.iewSquashCycles                    647                       # Number of cycles IEW is squashing
system.cpu.iew.iewUnblockCycles                  9581                       # Number of cycles IEW is unblocking
system.cpu.iew.lsq.thread0.blockedLoads             0                       # Number of blocked loads due to partial load-store forwarding
system.cpu.iew.lsq.thread0.cacheBlocked          1359                       # Number of times an access to memory failed due to the cache being blocked
system.cpu.iew.lsq.thread0.forwLoads             8419                       # Number of loads that had data forwarded from stores
system.cpu.iew.lsq.thread0.ignoredResponses            1                       # Number of memory responses ignored because the instruction is squashed
system.cpu.iew.lsq.thread0.invAddrLoads             0                       # Number of loads ignored due to an invalid address
system.cpu.iew.lsq.thread0.invAddrSwpfs             0                       # Number of software prefetches ignored due to an invalid address
system.cpu.iew.lsq.thread0.memOrderViolation           23                       # Number of memory ordering violations
system.cpu.iew.lsq.thread0.rescheduledLoads         9029                       # Number of loads that were rescheduled
system.cpu.iew.lsq.thread0.squashedLoads         1875                       # Number of loads squashed
system.cpu.iew.lsq.thread0.squashedStores         2717                       # Number of stores squashed
system.cpu.iew.memOrderViolationEvents             23                       # Number of memory order violations
system.cpu.iew.predictedNotTakenIncorrect          561                       # Number of branches that were predicted not taken incorrectly
system.cpu.iew.predictedTakenIncorrect             70                       # Number of branches that were predicted taken incorrectly
system.cpu.iew.wb_consumers                   1041518                       # num instructions consuming a value
system.cpu.iew.wb_count                       1142569                       # cumulative count of insts written-back
system.cpu.iew.wb_fanout                     0.528100                       # average fanout of values written-back
system.cpu.iew.wb_producers                    550026                       # num instructions producing a value
system.cpu.iew.wb_rate                       0.901648                       # insts written-back per cycle
system.cpu.iew.wb_sent                        1143268                       # cumulative count of insts sent to commit
system.cpu.int_regfile_reads                  1316514                       # number of integer regfile reads
system.cpu.int_regfile_writes                  761867                       # number of integer regfile writes
system.cpu.ipc                               0.789143                       # IPC: Instructions Per Cycle
system.cpu.ipc_total                         0.789143                       # IPC: Total IPC of All Threads
system.cpu.iq.FU_type_0::No_OpClass               835      0.07%      0.07% # Type of FU issued
system.cpu.iq.FU_type_0::IntAlu                775179     66.91%     66.98% # Type of FU issued
system.cpu.iq.FU_type_0::IntMult                 6016      0.52%     67.50% # Type of FU issued
system.cpu.iq.FU_type_0::IntDiv                     3      0.00%     67.50% # Type of FU issued
system.cpu.iq.FU_type_0::FloatAdd                   0      0.00%     67.50% # Type of FU issued
system.cpu.iq.FU_type_0::FloatCmp                   0      0.00%     67.50% # Type of FU issued
system.cpu.iq.FU_type_0::FloatCvt                   0      0.00%     67.50% # Type of FU issued
system.cpu.iq.FU_type_0::FloatMult                  0      0.00%     67.50% # Type of FU issued
system.cpu.iq.FU_type_0::FloatMultAcc               0      0.00%     67.50% # Type of FU issued
system.cpu.iq.FU_type_0::FloatDiv                   0      0.00%     67.50% # Type of FU issued
system.cpu.iq.FU_type_0::FloatMisc                  0      0.00%     67.50% # Type of FU issued
system.cpu.iq.FU_type_0::FloatSqrt                  0      0.00%     67.50% # Type of FU issued
system.cpu.iq.FU_type_0::SimdAdd                 1912      0.17%     67.67% # Type of FU issued
system.cpu.iq.FU_type_0::SimdAddAcc                 0      0.00%     67.67% # Type of FU issued
system.cpu.iq.FU_type_0::SimdAlu                 1909      0.16%     67.83% # Type of FU issued
system.cpu.iq.FU_type_0::SimdCmp                 1680      0.15%     67.97% # Type of FU issued
system.cpu.iq.FU_type_0::SimdCvt                    0      0.00%     67.97% # Type of FU issued
system.cpu.iq.FU_type_0::SimdMisc                2278      0.20%     68.17% # Type of FU issued
system.cpu.iq.FU_type_0::SimdMult                   0      0.00%     68.17% # Type of FU issued
system.cpu.iq.FU_type_0::SimdMultAcc                0      0.00%     68.17% # Type of FU issued
system.cpu.iq.FU_type_0::SimdShift                  0      0.00%     68.17% # Type of FU issued
system.cpu.iq.FU_type_0::SimdShiftAcc               0      0.00%     68.17% # Type of FU issued
system.cpu.iq.FU_type_0::SimdDiv                    0      0.00%     68.17% # Type of FU issued
system.cpu.iq.FU_type_0::SimdSqrt                   0      0.00%     68.17% # Type of FU issued
system.cpu.iq.FU_type_0::SimdFloatAdd               0      0.00%     68.17% # Type of FU issued
system.cpu.iq.FU_type_0::SimdFloatAlu               0      0.00%     68.17% # Type of FU issued
system.cpu.iq.FU_type_0::SimdFloatCmp               0      0.00%     68.17% # Type of FU issued
system.cpu.iq.FU_type_0::SimdFloatCvt               0      0.00%     68.17% # Type of FU issued
system.cpu.iq.FU_type_0::SimdFloatDiv               0      0.00%     68.17% # Type of FU issued
system.cpu.iq.FU_type_0::SimdFloatMisc              0      0.00%     68.17% # Type of FU issued
system.cpu.iq.FU_type_0::SimdFloatMult              0      0.00%     68.17% # Type of FU issued
system.cpu.iq.FU_type_0::SimdFloatMultAcc            0      0.00%     68.17% # Type of FU issued
system.cpu.iq.FU_type_0::SimdFloatSqrt              0      0.00%     68.17% # Type of FU issued
system.cpu.iq.FU_type_0::SimdReduceAdd              0      0.00%     68.17% # Type of FU issued
system.cpu.iq.FU_type_0::SimdReduceAlu              0      0.00%     68.17% # Type of FU issued
system.cpu.iq.FU_type_0::SimdReduceCmp              0      0.00%     68.17% # Type of FU issued
system.cpu.iq.FU_type_0::SimdFloatReduceAdd            0      0.00%     68.17% # Type of FU issued
system.cpu.iq.FU_type_0::SimdFloatReduceCmp            0      0.00%     68.17% # Type of FU issued
system.cpu.iq.FU_type_0::SimdAes                    0      0.00%     68.17% # Type of FU issued
system.cpu.iq.FU_type_0::SimdAesMix                 0      0.00%     68.17% # Type of FU issued
system.cpu.iq.FU_type_0::SimdSha1Hash               0      0.00%     68.17% # Type of FU issued
system.cpu.iq.FU_type_0::SimdSha1Hash2              0      0.00%     68.17% # Type of FU issued
system.cpu.iq.FU_type_0::SimdSha256Hash             0      0.00%     68.17% # Type of FU issued
system.cpu.iq.FU_type_0::SimdSha256Hash2            0      0.00%     68.17% # Type of FU issued
system.cpu.iq.FU_type_0::SimdShaSigma2              0      0.00%     68.17% # Type of FU issued
system.cpu.iq.FU_type_0::SimdShaSigma3              0      0.00%     68.17% # Type of FU issued
system.cpu.iq.FU_type_0::SimdPredAlu                0      0.00%     68.17% # Type of FU issued
system.cpu.iq.FU_type_0::MemRead               186697     16.11%     84.29% # Type of FU issued
system.cpu.iq.FU_type_0::MemWrite              182056     15.71%    100.00% # Type of FU issued
system.cpu.iq.FU_type_0::FloatMemRead               0      0.00%    100.00% # Type of FU issued
system.cpu.iq.FU_type_0::FloatMemWrite              0      0.00%    100.00% # Type of FU issued
system.cpu.iq.FU_type_0::IprAccess                  0      0.00%    100.00% # Type of FU issued
system.cpu.iq.FU_type_0::InstPrefetch               0      0.00%    100.00% # Type of FU issued
system.cpu.iq.FU_type_0::total                1158565                       # Type of FU issued
system.cpu.iq.fp_alu_accesses                       0                       # Number of floating point alu accesses
system.cpu.iq.fp_inst_queue_reads                   0                       # Number of floating instruction queue reads
system.cpu.iq.fp_inst_queue_wakeup_accesses            0                       # Number of floating instruction queue wakeup accesses
system.cpu.iq.fp_inst_queue_writes                  0                       # Number of floating instruction queue writes
system.cpu.iq.fu_busy_cnt                       21165                       # FU busy when requested
system.cpu.iq.fu_busy_rate                   0.018268                       # FU busy rate (busy events/executed inst)
system.cpu.iq.fu_full::No_OpClass                   0      0.00%      0.00% # attempts to use FU when none available
system.cpu.iq.fu_full::IntAlu                    2064      9.75%      9.75% # attempts to use FU when none available
system.cpu.iq.fu_full::IntMult                      0      0.00%      9.75% # attempts to use FU when none available
system.cpu.iq.fu_full::IntDiv                       0      0.00%      9.75% # attempts to use FU when none available
system.cpu.iq.fu_full::FloatAdd                     0      0.00%      9.75% # attempts to use FU when none available
system.cpu.iq.fu_full::FloatCmp                     0      0.00%      9.75% # attempts to use FU when none available
system.cpu.iq.fu_full::FloatCvt                     0      0.00%      9.75% # attempts to use FU when none available
system.cpu.iq.fu_full::FloatMult                    0      0.00%      9.75% # attempts to use FU when none available
system.cpu.iq.fu_full::FloatMultAcc                 0      0.00%      9.75% # attempts to use FU when none available
system.cpu.iq.fu_full::FloatDiv                     0      0.00%      9.75% # attempts to use FU when none available
system.cpu.iq.fu_full::FloatMisc                    0      0.00%      9.75% # attempts to use FU when none available
system.cpu.iq.fu_full::FloatSqrt                    0      0.00%      9.75% # attempts to use FU when none available
system.cpu.iq.fu_full::SimdAdd                      0      0.00%      9.75% # attempts to use FU when none available
system.cpu.iq.fu_full::SimdAddAcc                   0      0.00%      9.75% # attempts to use FU when none available
system.cpu.iq.fu_full::SimdAlu                      2      0.01%      9.76% # attempts to use FU when none available
system.cpu.iq.fu_full::SimdCmp                      2      0.01%      9.77% # attempts to use FU when none available
system.cpu.iq.fu_full::SimdCvt                      0      0.00%      9.77% # attempts to use FU when none available
system.cpu.iq.fu_full::SimdMisc                     0      0.00%      9.77% # attempts to use FU when none available
system.cpu.iq.fu_full::SimdMult                     0      0.00%      9.77% # attempts to use FU when none available
system.cpu.iq.fu_full::SimdMultAcc                  0      0.00%      9.77% # attempts to use FU when none available
system.cpu.iq.fu_full::SimdShift                    0      0.00%      9.77% # attempts to use FU when none available
system.cpu.iq.fu_full::SimdShiftAcc                 0      0.00%      9.77% # attempts to use FU when none available
system.cpu.iq.fu_full::SimdDiv                      0      0.00%      9.77% # attempts to use FU when none available
system.cpu.iq.fu_full::SimdSqrt                     0      0.00%      9.77% # attempts to use FU when none available
system.cpu.iq.fu_full::SimdFloatAdd                 0      0.00%      9.77% # attempts to use FU when none available
system.cpu.iq.fu_full::SimdFloatAlu                 0      0.00%      9.77% # attempts to use FU when none available
system.cpu.iq.fu_full::SimdFloatCmp                 0      0.00%      9.77% # attempts to use FU when none available
system.cpu.iq.fu_full::SimdFloatCvt                 0      0.00%      9.77% # attempts to use FU when none available
system.cpu.iq.fu_full::SimdFloatDiv                 0      0.00%      9.77% # attempts to use FU when none available
system.cpu.iq.fu_full::SimdFloatMisc                0      0.00%      9.77% # attempts to use FU when none available
system.cpu.iq.fu_full::SimdFloatMult                0      0.00%      9.77% # attempts to use FU when none available
system.cpu.iq.fu_full::SimdFloatMultAcc             0      0.00%      9.77% # attempts to use FU when none available
system.cpu.iq.fu_full::SimdFloatSqrt                0      0.00%      9.77% # attempts to use FU when none available
system.cpu.iq.fu_full::SimdReduceAdd                0      0.00%      9.77% # attempts to use FU when none available
system.cpu.iq.fu_full::SimdReduceAlu                0      0.00%      9.77% # attempts to use FU when none available
system.cpu.iq.fu_full::SimdReduceCmp                0      0.00%      9.77% # attempts to use FU when none available
system.cpu.iq.fu_full::SimdFloatReduceAdd            0      0.00%      9.77% # attempts to use FU when none available
system.cpu.iq.fu_full::SimdFloatReduceCmp            0      0.00%      9.77% # attempts to use FU when none available
system.cpu.iq.fu_full::SimdAes                      0      0.00%      9.77% # attempts to use FU when none available
system.cpu.iq.fu_full::SimdAesMix                   0      0.00%      9.77% # attempts to use FU when none available
system.cpu.iq.fu_full::SimdSha1Hash                 0      0.00%      9.77% # attempts to use FU when none available
system.cpu.iq.fu_full::SimdSha1Hash2                0      0.00%      9.77% # attempts to use FU when none available
system.cpu.iq.fu_full::SimdSha256Hash               0      0.00%      9.77% # attempts to use FU when none available
system.cpu.iq.fu_full::SimdSha256Hash2              0      0.00%      9.77% # attempts to use FU when none available
system.cpu.iq.fu_full::SimdShaSigma2                0      0.00%      9.77% # attempts to use FU when none available
system.cpu.iq.fu_full::SimdShaSigma3                0      0.00%      9.77% # attempts to use FU when none available
system.cpu.iq.fu_full::SimdPredAlu                  0      0.00%      9.77% # attempts to use FU when none available
system.cpu.iq.fu_full::MemRead                   5629     26.60%     36.37% # attempts to use FU when none available
system.cpu.iq.fu_full::MemWrite                 13468     63.63%    100.00% # attempts to use FU when none available
system.cpu.iq.fu_full::FloatMemRead                 0      0.00%    100.00% # attempts to use FU when none available
system.cpu.iq.fu_full::FloatMemWrite                0      0.00%    100.00% # attempts to use FU when none available
system.cpu.iq.fu_full::IprAccess                    0      0.00%    100.00% # attempts to use FU when none available
system.cpu.iq.fu_full::InstPrefetch                 0      0.00%    100.00% # attempts to use FU when none available
system.cpu.iq.int_alu_accesses                1157260                       # Number of integer alu accesses
system.cpu.iq.int_inst_queue_reads            3461313                       # Number of integer instruction queue reads
system.cpu.iq.int_inst_queue_wakeup_accesses      1122565                       # Number of integer instruction queue wakeup accesses
system.cpu.iq.int_inst_queue_writes           1139629                       # Number of integer instruction queue writes
system.cpu.iq.iqInstsAdded                    1145960                       # Number of instructions added to the IQ (excludes non-spec)
system.cpu.iq.iqInstsIssued                   1158565                       # Number of instructions issued
system.cpu.iq.iqNonSpecInstsAdded                1268                       # Number of non-speculative instructions added to the IQ
system.cpu.iq.iqSquashedInstsExamined           12797                       # Number of squashed instructions iterated over during squash; mainly for profiling
system.cpu.iq.iqSquashedInstsIssued                99                       # Number of squashed instructions issued
system.cpu.iq.iqSquashedNonSpecRemoved             22                       # Number of squashed non-spec instructions that were removed
system.cpu.iq.iqSquashedOperandsExamined         7169                       # Number of squashed operands that are examined and possibly removed from graph
system.cpu.iq.issued_per_cycle::samples       1165477                       # Number of insts issued each cycle
system.cpu.iq.issued_per_cycle::mean         0.994069                       # Number of insts issued each cycle
system.cpu.iq.issued_per_cycle::stdev        1.756316                       # Number of insts issued each cycle
system.cpu.iq.issued_per_cycle::underflows            0      0.00%      0.00% # Number of insts issued each cycle
system.cpu.iq.issued_per_cycle::0              778535     66.80%     66.80% # Number of insts issued each cycle
system.cpu.iq.issued_per_cycle::1              101557      8.71%     75.51% # Number of insts issued each cycle
system.cpu.iq.issued_per_cycle::2               83960      7.20%     82.72% # Number of insts issued each cycle
system.cpu.iq.issued_per_cycle::3               67923      5.83%     88.55% # Number of insts issued each cycle
system.cpu.iq.issued_per_cycle::4               51791      4.44%     92.99% # Number of insts issued each cycle
system.cpu.iq.issued_per_cycle::5               35829      3.07%     96.06% # Number of insts issued each cycle
system.cpu.iq.issued_per_cycle::6               28965      2.49%     98.55% # Number of insts issued each cycle
system.cpu.iq.issued_per_cycle::7               10116      0.87%     99.42% # Number of insts issued each cycle
system.cpu.iq.issued_per_cycle::8                6801      0.58%    100.00% # Number of insts issued each cycle
system.cpu.iq.issued_per_cycle::overflows            0      0.00%    100.00% # Number of insts issued each cycle
system.cpu.iq.issued_per_cycle::min_value            0                       # Number of insts issued each cycle
system.cpu.iq.issued_per_cycle::max_value            8                       # Number of insts issued each cycle
system.cpu.iq.issued_per_cycle::total         1165477                       # Number of insts issued each cycle
system.cpu.iq.rate                           0.914271                       # Inst issue rate
system.cpu.iq.vec_alu_accesses                  21635                       # Number of vector alu accesses
system.cpu.iq.vec_inst_queue_reads              42556                       # Number of vector instruction queue reads
system.cpu.iq.vec_inst_queue_wakeup_accesses        20004                       # Number of vector instruction queue wakeup accesses
system.cpu.iq.vec_inst_queue_writes             20418                       # Number of vector instruction queue writes
system.cpu.itb.accesses                             0                       # DTB accesses
system.cpu.itb.align_faults                         0                       # Number of TLB faults due to alignment restrictions
system.cpu.itb.domain_faults                        0                       # Number of TLB faults due to domain restrictions
system.cpu.itb.flush_entries                        0                       # Number of entries that have been flushed from TLB
system.cpu.itb.flush_tlb                            0                       # Number of times complete TLB was flushed
system.cpu.itb.flush_tlb_asid                       0                       # Number of times TLB was flushed by ASID
system.cpu.itb.flush_tlb_mva                        0                       # Number of times TLB was flushed by MVA
system.cpu.itb.flush_tlb_mva_asid                   0                       # Number of times TLB was flushed by MVA & ASID
system.cpu.itb.hits                                 0                       # DTB hits
system.cpu.itb.inst_accesses                        0                       # ITB inst accesses
system.cpu.itb.inst_hits                            0                       # ITB inst hits
system.cpu.itb.inst_misses                          0                       # ITB inst misses
system.cpu.itb.misses                               0                       # DTB misses
system.cpu.itb.perms_faults                         0                       # Number of TLB faults due to permissions restrictions
system.cpu.itb.prefetch_faults                      0                       # Number of TLB faults due to prefetch
system.cpu.itb.read_accesses                        0                       # DTB read accesses
system.cpu.itb.read_hits                            0                       # DTB read hits
system.cpu.itb.read_misses                          0                       # DTB read misses
system.cpu.itb.stage2_mmu.stage2_tlb.accesses            0                       # DTB accesses
system.cpu.itb.stage2_mmu.stage2_tlb.align_faults            0                       # Number of TLB faults due to alignment restrictions
system.cpu.itb.stage2_mmu.stage2_tlb.domain_faults            0                       # Number of TLB faults due to domain restrictions
system.cpu.itb.stage2_mmu.stage2_tlb.flush_entries            0                       # Number of entries that have been flushed from TLB
system.cpu.itb.stage2_mmu.stage2_tlb.flush_tlb            0                       # Number of times complete TLB was flushed
system.cpu.itb.stage2_mmu.stage2_tlb.flush_tlb_asid            0                       # Number of times TLB was flushed by ASID
system.cpu.itb.stage2_mmu.stage2_tlb.flush_tlb_mva            0                       # Number of times TLB was flushed by MVA
system.cpu.itb.stage2_mmu.stage2_tlb.flush_tlb_mva_asid            0                       # Number of times TLB was flushed by MVA & ASID
system.cpu.itb.stage2_mmu.stage2_tlb.hits            0                       # DTB hits
system.cpu.itb.stage2_mmu.stage2_tlb.inst_accesses            0                       # ITB inst accesses
system.cpu.itb.stage2_mmu.stage2_tlb.inst_hits            0                       # ITB inst hits
system.cpu.itb.stage2_mmu.stage2_tlb.inst_misses            0                       # ITB inst misses
system.cpu.itb.stage2_mmu.stage2_tlb.misses            0                       # DTB misses
system.cpu.itb.stage2_mmu.stage2_tlb.perms_faults            0                       # Number of TLB faults due to permissions restrictions
system.cpu.itb.stage2_mmu.stage2_tlb.prefetch_faults            0                       # Number of TLB faults due to prefetch
system.cpu.itb.stage2_mmu.stage2_tlb.read_accesses            0                       # DTB read accesses
system.cpu.itb.stage2_mmu.stage2_tlb.read_hits            0                       # DTB read hits
system.cpu.itb.stage2_mmu.stage2_tlb.read_misses            0                       # DTB read misses
system.cpu.itb.stage2_mmu.stage2_tlb.walker.walkRequestOrigin_Requested::Data            0                       # Table walker requests started/completed, data/inst
system.cpu.itb.stage2_mmu.stage2_tlb.walker.walkRequestOrigin_Requested::Inst            0                       # Table walker requests started/completed, data/inst
system.cpu.itb.stage2_mmu.stage2_tlb.walker.walkRequestOrigin_Requested::total            0                       # Table walker requests started/completed, data/inst
system.cpu.itb.stage2_mmu.stage2_tlb.walker.walkRequestOrigin_Completed::Data            0                       # Table walker requests started/completed, data/inst
system.cpu.itb.stage2_mmu.stage2_tlb.walker.walkRequestOrigin_Completed::Inst            0                       # Table walker requests started/completed, data/inst
system.cpu.itb.stage2_mmu.stage2_tlb.walker.walkRequestOrigin_Completed::total            0                       # Table walker requests started/completed, data/inst
system.cpu.itb.stage2_mmu.stage2_tlb.walker.walkRequestOrigin::total            0                       # Table walker requests started/completed, data/inst
system.cpu.itb.stage2_mmu.stage2_tlb.walker.walks            0                       # Table walker walks requested
system.cpu.itb.stage2_mmu.stage2_tlb.write_accesses            0                       # DTB write accesses
system.cpu.itb.stage2_mmu.stage2_tlb.write_hits            0                       # DTB write hits
system.cpu.itb.stage2_mmu.stage2_tlb.write_misses            0                       # DTB write misses
system.cpu.itb.walker.walkRequestOrigin_Requested::Data            0                       # Table walker requests started/completed, data/inst
system.cpu.itb.walker.walkRequestOrigin_Requested::Inst            0                       # Table walker requests started/completed, data/inst
system.cpu.itb.walker.walkRequestOrigin_Requested::total            0                       # Table walker requests started/completed, data/inst
system.cpu.itb.walker.walkRequestOrigin_Completed::Data            0                       # Table walker requests started/completed, data/inst
system.cpu.itb.walker.walkRequestOrigin_Completed::Inst            0                       # Table walker requests started/completed, data/inst
system.cpu.itb.walker.walkRequestOrigin_Completed::total            0                       # Table walker requests started/completed, data/inst
system.cpu.itb.walker.walkRequestOrigin::total            0                       # Table walker requests started/completed, data/inst
system.cpu.itb.walker.walks                         0                       # Table walker walks requested
system.cpu.itb.write_accesses                       0                       # DTB write accesses
system.cpu.itb.write_hits                           0                       # DTB write hits
system.cpu.itb.write_misses                         0                       # DTB write misses
system.cpu.memDep0.conflictingLoads              5053                       # Number of conflicting loads.
system.cpu.memDep0.conflictingStores             3664                       # Number of conflicting stores.
system.cpu.memDep0.insertedLoads               172809                       # Number of loads inserted to the mem dependence unit.
system.cpu.memDep0.insertedStores              182594                       # Number of stores inserted to the mem dependence unit.
system.cpu.misc_regfile_reads                  785931                       # number of misc regfile reads
system.cpu.misc_regfile_writes                   4929                       # number of misc regfile writes
system.cpu.numCycles                          1267201                       # number of cpu cycles simulated
system.cpu.numWorkItemsCompleted                    0                       # number of work items this cpu completed
system.cpu.numWorkItemsStarted                      0                       # number of work items this cpu started
system.cpu.rename.BlockCycles                    8056                       # Number of cycles rename is blocking
system.cpu.rename.CommittedMaps               1211180                       # Number of HB maps that are committed
system.cpu.rename.IQFullEvents                     76                       # Number of times rename has blocked due to IQ full
system.cpu.rename.IdleCycles                   619887                       # Number of cycles rename is idle
system.cpu.rename.ROBFullEvents                     5                       # Number of times rename has blocked due to ROB full
system.cpu.rename.RenameLookups               1852335                       # Number of register rename lookups that rename has made
system.cpu.rename.RenamedInsts                1149750                       # Number of instructions processed by rename
system.cpu.rename.RenamedOperands             1224497                       # Number of destination operands rename has renamed
system.cpu.rename.RunCycles                    223684                       # Number of cycles rename is running
system.cpu.rename.SQFullEvents                  81645                       # Number of times rename has blocked due to SQ full
system.cpu.rename.SquashCycles                    647                       # Number of cycles rename is squashing
system.cpu.rename.UnblockCycles                 85505                       # Number of cycles rename is unblocking
system.cpu.rename.UndoneMaps                    13289                       # Number of HB maps that are undone due to squashing
system.cpu.rename.int_rename_lookups          1308567                       # Number of integer rename lookups
system.cpu.rename.serializeStallCycles         227698                       # count of cycles rename stalled for serializing inst
system.cpu.rename.serializingInsts               3797                       # count of serializing insts renamed
system.cpu.rename.skidInsts                     21955                       # count of insts added to the skid buffer
system.cpu.rename.tempSerializingInsts           1268                       # count of temporary serializing insts renamed
system.cpu.rename.vec_rename_lookups            24498                       # Number of vector rename lookups
system.cpu.rob.rob_reads                      2263807                       # The number of ROB reads
system.cpu.rob.rob_writes                     2296601                       # The number of ROB writes
system.cpu.timesIdled                           17596                       # Number of times that the entire CPU went into an idle state and unscheduled itself
system.cpu.vec_regfile_reads                    24286                       # number of vector regfile reads
system.cpu.vec_regfile_writes                   10051                       # number of vector regfile writes
system.cpu.workload.numSyscalls                    13                       # Number of system calls
system.membus.snoop_filter.hit_multi_requests            0                       # Number of requests hitting in the snoop filter with multiple (>1) holders of the requested data.
system.membus.snoop_filter.hit_multi_snoops            0                       # Number of snoops hitting in the snoop filter with multiple (>1) holders of the requested data.
system.membus.snoop_filter.hit_single_requests            0                       # Number of requests hitting in the snoop filter with a single holder of the requested data.
system.membus.snoop_filter.hit_single_snoops            0                       # Number of snoops hitting in the snoop filter with a single holder of the requested data.
system.membus.snoop_filter.tot_requests          4609                       # Total number of requests made to the snoop filter.
system.membus.snoop_filter.tot_snoops               0                       # Total number of snoops made to the snoop filter.
system.tol2bus.snoop_filter.hit_multi_requests            1                       # Number of requests hitting in the snoop filter with multiple (>1) holders of the requested data.
system.tol2bus.snoop_filter.hit_multi_snoops            0                       # Number of snoops hitting in the snoop filter with multiple (>1) holders of the requested data.
system.tol2bus.snoop_filter.hit_single_requests        26234                       # Number of requests hitting in the snoop filter with a single holder of the requested data.
system.tol2bus.snoop_filter.hit_single_snoops            0                       # Number of snoops hitting in the snoop filter with a single holder of the requested data.
system.tol2bus.snoop_filter.tot_requests        53729                       # Total number of requests made to the snoop filter.
system.tol2bus.snoop_filter.tot_snoops              0                       # Total number of snoops made to the snoop filter.
system.membus.trans_dist::ReadResp               1283                       # Transaction distribution
system.membus.trans_dist::ReadExReq              3311                       # Transaction distribution
system.membus.trans_dist::ReadExResp             3311                       # Transaction distribution
system.membus.trans_dist::ReadSharedReq          1283                       # Transaction distribution
system.membus.trans_dist::InvalidateReq            15                       # Transaction distribution
system.membus.pkt_count_system.l2.mem_side::system.mem_ctrls.port         9203                       # Packet count per connected master and slave (bytes)
system.membus.pkt_count::total                   9203                       # Packet count per connected master and slave (bytes)
system.membus.pkt_size_system.l2.mem_side::system.mem_ctrls.port       294016                       # Cumulative packet size per connected master and slave (bytes)
system.membus.pkt_size::total                  294016                       # Cumulative packet size per connected master and slave (bytes)
system.membus.snoops                                0                       # Total snoops (count)
system.membus.snoopTraffic                          0                       # Total snoop traffic (bytes)
system.membus.snoop_fanout::samples              4609                       # Request fanout histogram
system.membus.snoop_fanout::mean                    0                       # Request fanout histogram
system.membus.snoop_fanout::stdev                   0                       # Request fanout histogram
system.membus.snoop_fanout::underflows              0      0.00%      0.00% # Request fanout histogram
system.membus.snoop_fanout::0                    4609    100.00%    100.00% # Request fanout histogram
system.membus.snoop_fanout::1                       0      0.00%    100.00% # Request fanout histogram
system.membus.snoop_fanout::overflows               0      0.00%    100.00% # Request fanout histogram
system.membus.snoop_fanout::min_value               0                       # Request fanout histogram
system.membus.snoop_fanout::max_value               0                       # Request fanout histogram
system.membus.snoop_fanout::total                4609                       # Request fanout histogram
system.membus.reqLayer0.occupancy             5626500                       # Layer occupancy (ticks)
system.membus.reqLayer0.utilization               0.9                       # Layer utilization (%)
system.membus.respLayer1.occupancy           23831250                       # Layer occupancy (ticks)
system.membus.respLayer1.utilization              3.8                       # Layer utilization (%)
system.membus.power_state.pwrStateResidencyTicks::UNDEFINED    633600000                       # Cumulative time (in ticks) in various power states
system.tol2bus.trans_dist::ReadResp             24167                       # Transaction distribution
system.tol2bus.trans_dist::WritebackDirty         2917                       # Transaction distribution
system.tol2bus.trans_dist::WritebackClean        23151                       # Transaction distribution
system.tol2bus.trans_dist::CleanEvict             166                       # Transaction distribution
system.tol2bus.trans_dist::ReadExReq             3313                       # Transaction distribution
system.tol2bus.trans_dist::ReadExResp            3313                       # Transaction distribution
system.tol2bus.trans_dist::ReadCleanReq         23388                       # Transaction distribution
system.tol2bus.trans_dist::ReadSharedReq          779                       # Transaction distribution
system.tol2bus.trans_dist::InvalidateReq           15                       # Transaction distribution
system.tol2bus.trans_dist::InvalidateResp           15                       # Transaction distribution
system.tol2bus.pkt_count_system.cpu.icache.mem_side::system.l2.cpu_side        69927                       # Packet count per connected master and slave (bytes)
system.tol2bus.pkt_count_system.cpu.dcache.mem_side::system.l2.cpu_side        11297                       # Packet count per connected master and slave (bytes)
system.tol2bus.pkt_count::total                 81224                       # Packet count per connected master and slave (bytes)
system.tol2bus.pkt_size_system.cpu.icache.mem_side::system.l2.cpu_side      2978496                       # Cumulative packet size per connected master and slave (bytes)
system.tol2bus.pkt_size_system.cpu.dcache.mem_side::system.l2.cpu_side       448576                       # Cumulative packet size per connected master and slave (bytes)
system.tol2bus.pkt_size::total                3427072                       # Cumulative packet size per connected master and slave (bytes)
system.tol2bus.snoops                               0                       # Total snoops (count)
system.tol2bus.snoopTraffic                         0                       # Total snoop traffic (bytes)
system.tol2bus.snoop_fanout::samples            27495                       # Request fanout histogram
system.tol2bus.snoop_fanout::mean            0.000036                       # Request fanout histogram
system.tol2bus.snoop_fanout::stdev           0.006031                       # Request fanout histogram
system.tol2bus.snoop_fanout::underflows             0      0.00%      0.00% # Request fanout histogram
system.tol2bus.snoop_fanout::0                  27494    100.00%    100.00% # Request fanout histogram
system.tol2bus.snoop_fanout::1                      1      0.00%    100.00% # Request fanout histogram
system.tol2bus.snoop_fanout::2                      0      0.00%    100.00% # Request fanout histogram
system.tol2bus.snoop_fanout::overflows              0      0.00%    100.00% # Request fanout histogram
system.tol2bus.snoop_fanout::min_value              0                       # Request fanout histogram
system.tol2bus.snoop_fanout::max_value              1                       # Request fanout histogram
system.tol2bus.snoop_fanout::total              27495                       # Request fanout histogram
system.tol2bus.reqLayer0.occupancy           52932500                       # Layer occupancy (ticks)
system.tol2bus.reqLayer0.utilization              8.4                       # Layer utilization (%)
system.tol2bus.respLayer1.occupancy           6145500                       # Layer occupancy (ticks)
system.tol2bus.respLayer1.utilization             1.0                       # Layer utilization (%)
system.tol2bus.respLayer0.occupancy          35082000                       # Layer occupancy (ticks)
system.tol2bus.respLayer0.utilization             5.5                       # Layer utilization (%)
system.tol2bus.power_state.pwrStateResidencyTicks::UNDEFINED    633600000                       # Cumulative time (in ticks) in various power states
system.voltage_domain.voltage                       1                       # Voltage in Volts
system.clk_domain.clock                          1000                       # Clock period in ticks
system.l2.demand_hits::.cpu.inst                22867                       # number of demand (read+write) hits
system.l2.demand_hits::.cpu.data                   19                       # number of demand (read+write) hits
system.l2.demand_hits::total                    22886                       # number of demand (read+write) hits
system.l2.overall_hits::.cpu.inst               22867                       # number of overall hits
system.l2.overall_hits::.cpu.data                  19                       # number of overall hits
system.l2.overall_hits::total                   22886                       # number of overall hits
system.l2.demand_misses::.cpu.inst                521                       # number of demand (read+write) misses
system.l2.demand_misses::.cpu.data               4073                       # number of demand (read+write) misses
system.l2.demand_misses::total                   4594                       # number of demand (read+write) misses
system.l2.overall_misses::.cpu.inst               521                       # number of overall misses
system.l2.overall_misses::.cpu.data              4073                       # number of overall misses
system.l2.overall_misses::total                  4594                       # number of overall misses
system.l2.demand_miss_latency::.cpu.inst     40929000                       # number of demand (read+write) miss cycles
system.l2.demand_miss_latency::.cpu.data    324913000                       # number of demand (read+write) miss cycles
system.l2.demand_miss_latency::total        365842000                       # number of demand (read+write) miss cycles
system.l2.overall_miss_latency::.cpu.inst     40929000                       # number of overall miss cycles
system.l2.overall_miss_latency::.cpu.data    324913000                       # number of overall miss cycles
system.l2.overall_miss_latency::total       365842000                       # number of overall miss cycles
system.l2.demand_accesses::.cpu.inst            23388                       # number of demand (read+write) accesses
system.l2.demand_accesses::.cpu.data             4092                       # number of demand (read+write) accesses
system.l2.demand_accesses::total                27480                       # number of demand (read+write) accesses
system.l2.overall_accesses::.cpu.inst           23388                       # number of overall (read+write) accesses
system.l2.overall_accesses::.cpu.data            4092                       # number of overall (read+write) accesses
system.l2.overall_accesses::total               27480                       # number of overall (read+write) accesses
system.l2.demand_miss_rate::.cpu.inst        0.022276                       # miss rate for demand accesses
system.l2.demand_miss_rate::.cpu.data        0.995357                       # miss rate for demand accesses
system.l2.demand_miss_rate::total            0.167176                       # miss rate for demand accesses
system.l2.overall_miss_rate::.cpu.inst       0.022276                       # miss rate for overall accesses
system.l2.overall_miss_rate::.cpu.data       0.995357                       # miss rate for overall accesses
system.l2.overall_miss_rate::total           0.167176                       # miss rate for overall accesses
system.l2.demand_avg_miss_latency::.cpu.inst 78558.541267                       # average overall miss latency
system.l2.demand_avg_miss_latency::.cpu.data 79772.403634                       # average overall miss latency
system.l2.demand_avg_miss_latency::total 79634.740966                       # average overall miss latency
system.l2.overall_avg_miss_latency::.cpu.inst 78558.541267                       # average overall miss latency
system.l2.overall_avg_miss_latency::.cpu.data 79772.403634                       # average overall miss latency
system.l2.overall_avg_miss_latency::total 79634.740966                       # average overall miss latency
system.l2.blocked_cycles::no_mshrs                  0                       # number of cycles access was blocked
system.l2.blocked_cycles::no_targets                0                       # number of cycles access was blocked
system.l2.blocked::no_mshrs                         0                       # number of cycles access was blocked
system.l2.blocked::no_targets                       0                       # number of cycles access was blocked
system.l2.avg_blocked_cycles::no_mshrs            nan                       # average number of cycles each access was blocked
system.l2.avg_blocked_cycles::no_targets          nan                       # average number of cycles each access was blocked
system.l2.demand_mshr_misses::.cpu.inst           521                       # number of demand (read+write) MSHR misses
system.l2.demand_mshr_misses::.cpu.data          4073                       # number of demand (read+write) MSHR misses
system.l2.demand_mshr_misses::total              4594                       # number of demand (read+write) MSHR misses
system.l2.overall_mshr_misses::.cpu.inst          521                       # number of overall MSHR misses
system.l2.overall_mshr_misses::.cpu.data         4073                       # number of overall MSHR misses
system.l2.overall_mshr_misses::total             4594                       # number of overall MSHR misses
system.l2.demand_mshr_miss_latency::.cpu.inst     35719000                       # number of demand (read+write) MSHR miss cycles
system.l2.demand_mshr_miss_latency::.cpu.data    284183000                       # number of demand (read+write) MSHR miss cycles
system.l2.demand_mshr_miss_latency::total    319902000                       # number of demand (read+write) MSHR miss cycles
system.l2.overall_mshr_miss_latency::.cpu.inst     35719000                       # number of overall MSHR miss cycles
system.l2.overall_mshr_miss_latency::.cpu.data    284183000                       # number of overall MSHR miss cycles
system.l2.overall_mshr_miss_latency::total    319902000                       # number of overall MSHR miss cycles
system.l2.demand_mshr_miss_rate::.cpu.inst     0.022276                       # mshr miss rate for demand accesses
system.l2.demand_mshr_miss_rate::.cpu.data     0.995357                       # mshr miss rate for demand accesses
system.l2.demand_mshr_miss_rate::total       0.167176                       # mshr miss rate for demand accesses
system.l2.overall_mshr_miss_rate::.cpu.inst     0.022276                       # mshr miss rate for overall accesses
system.l2.overall_mshr_miss_rate::.cpu.data     0.995357                       # mshr miss rate for overall accesses
system.l2.overall_mshr_miss_rate::total      0.167176                       # mshr miss rate for overall accesses
system.l2.demand_avg_mshr_miss_latency::.cpu.inst 68558.541267                       # average overall mshr miss latency
system.l2.demand_avg_mshr_miss_latency::.cpu.data 69772.403634                       # average overall mshr miss latency
system.l2.demand_avg_mshr_miss_latency::total 69634.740966                       # average overall mshr miss latency
system.l2.overall_avg_mshr_miss_latency::.cpu.inst 68558.541267                       # average overall mshr miss latency
system.l2.overall_avg_mshr_miss_latency::.cpu.data 69772.403634                       # average overall mshr miss latency
system.l2.overall_avg_mshr_miss_latency::total 69634.740966                       # average overall mshr miss latency
system.l2.replacements                              0                       # number of replacements
system.l2.WritebackDirty_hits::.writebacks         2917                       # number of WritebackDirty hits
system.l2.WritebackDirty_hits::total             2917                       # number of WritebackDirty hits
system.l2.WritebackDirty_accesses::.writebacks         2917                       # number of WritebackDirty accesses(hits+misses)
system.l2.WritebackDirty_accesses::total         2917                       # number of WritebackDirty accesses(hits+misses)
system.l2.WritebackClean_hits::.writebacks        23150                       # number of WritebackClean hits
system.l2.WritebackClean_hits::total            23150                       # number of WritebackClean hits
system.l2.WritebackClean_accesses::.writebacks        23150                       # number of WritebackClean accesses(hits+misses)
system.l2.WritebackClean_accesses::total        23150                       # number of WritebackClean accesses(hits+misses)
system.l2.ReadExReq_hits::.cpu.data                 2                       # number of ReadExReq hits
system.l2.ReadExReq_hits::total                     2                       # number of ReadExReq hits
system.l2.ReadExReq_misses::.cpu.data            3311                       # number of ReadExReq misses
system.l2.ReadExReq_misses::total                3311                       # number of ReadExReq misses
system.l2.ReadExReq_miss_latency::.cpu.data    258766500                       # number of ReadExReq miss cycles
system.l2.ReadExReq_miss_latency::total     258766500                       # number of ReadExReq miss cycles
system.l2.ReadExReq_accesses::.cpu.data          3313                       # number of ReadExReq accesses(hits+misses)
system.l2.ReadExReq_accesses::total              3313                       # number of ReadExReq accesses(hits+misses)
system.l2.ReadExReq_miss_rate::.cpu.data     0.999396                       # miss rate for ReadExReq accesses
system.l2.ReadExReq_miss_rate::total         0.999396                       # miss rate for ReadExReq accesses
system.l2.ReadExReq_avg_miss_latency::.cpu.data 78153.578979                       # average ReadExReq miss latency
system.l2.ReadExReq_avg_miss_latency::total 78153.578979                       # average ReadExReq miss latency
system.l2.ReadExReq_mshr_misses::.cpu.data         3311                       # number of ReadExReq MSHR misses
system.l2.ReadExReq_mshr_misses::total           3311                       # number of ReadExReq MSHR misses
system.l2.ReadExReq_mshr_miss_latency::.cpu.data    225656500                       # number of ReadExReq MSHR miss cycles
system.l2.ReadExReq_mshr_miss_latency::total    225656500                       # number of ReadExReq MSHR miss cycles
system.l2.ReadExReq_mshr_miss_rate::.cpu.data     0.999396                       # mshr miss rate for ReadExReq accesses
system.l2.ReadExReq_mshr_miss_rate::total     0.999396                       # mshr miss rate for ReadExReq accesses
system.l2.ReadExReq_avg_mshr_miss_latency::.cpu.data 68153.578979                       # average ReadExReq mshr miss latency
system.l2.ReadExReq_avg_mshr_miss_latency::total 68153.578979                       # average ReadExReq mshr miss latency
system.l2.ReadCleanReq_hits::.cpu.inst          22867                       # number of ReadCleanReq hits
system.l2.ReadCleanReq_hits::total              22867                       # number of ReadCleanReq hits
system.l2.ReadCleanReq_misses::.cpu.inst          521                       # number of ReadCleanReq misses
system.l2.ReadCleanReq_misses::total              521                       # number of ReadCleanReq misses
system.l2.ReadCleanReq_miss_latency::.cpu.inst     40929000                       # number of ReadCleanReq miss cycles
system.l2.ReadCleanReq_miss_latency::total     40929000                       # number of ReadCleanReq miss cycles
system.l2.ReadCleanReq_accesses::.cpu.inst        23388                       # number of ReadCleanReq accesses(hits+misses)
system.l2.ReadCleanReq_accesses::total          23388                       # number of ReadCleanReq accesses(hits+misses)
system.l2.ReadCleanReq_miss_rate::.cpu.inst     0.022276                       # miss rate for ReadCleanReq accesses
system.l2.ReadCleanReq_miss_rate::total      0.022276                       # miss rate for ReadCleanReq accesses
system.l2.ReadCleanReq_avg_miss_latency::.cpu.inst 78558.541267                       # average ReadCleanReq miss latency
system.l2.ReadCleanReq_avg_miss_latency::total 78558.541267                       # average ReadCleanReq miss latency
system.l2.ReadCleanReq_mshr_misses::.cpu.inst          521                       # number of ReadCleanReq MSHR misses
system.l2.ReadCleanReq_mshr_misses::total          521                       # number of ReadCleanReq MSHR misses
system.l2.ReadCleanReq_mshr_miss_latency::.cpu.inst     35719000                       # number of ReadCleanReq MSHR miss cycles
system.l2.ReadCleanReq_mshr_miss_latency::total     35719000                       # number of ReadCleanReq MSHR miss cycles
system.l2.ReadCleanReq_mshr_miss_rate::.cpu.inst     0.022276                       # mshr miss rate for ReadCleanReq accesses
system.l2.ReadCleanReq_mshr_miss_rate::total     0.022276                       # mshr miss rate for ReadCleanReq accesses
system.l2.ReadCleanReq_avg_mshr_miss_latency::.cpu.inst 68558.541267                       # average ReadCleanReq mshr miss latency
system.l2.ReadCleanReq_avg_mshr_miss_latency::total 68558.541267                       # average ReadCleanReq mshr miss latency
system.l2.ReadSharedReq_hits::.cpu.data            17                       # number of ReadSharedReq hits
[...]
system.cpu.dcache.overall_miss_latency::total    635670786                       # number of overall miss cycles
system.cpu.dcache.demand_accesses::.cpu.data       342655                       # number of demand (read+write) accesses
system.cpu.dcache.demand_accesses::total       342655                       # number of demand (read+write) accesses
system.cpu.dcache.overall_accesses::.cpu.data       343342                       # number of overall (read+write) accesses
system.cpu.dcache.overall_accesses::total       343342                       # number of overall (read+write) accesses
system.cpu.dcache.demand_miss_rate::.cpu.data     0.025116                       # miss rate for demand accesses
system.cpu.dcache.demand_miss_rate::total     0.025116                       # miss rate for demand accesses
system.cpu.dcache.overall_miss_rate::.cpu.data     0.025290                       # miss rate for overall accesses
system.cpu.dcache.overall_miss_rate::total     0.025290                       # miss rate for overall accesses
system.cpu.dcache.demand_avg_miss_latency::.cpu.data 73863.674878                       # average overall miss latency
system.cpu.dcache.demand_avg_miss_latency::total 73863.674878                       # average overall miss latency
system.cpu.dcache.overall_avg_miss_latency::.cpu.data 73208.658989                       # average overall miss latency
system.cpu.dcache.overall_avg_miss_latency::total 73208.658989                       # average overall miss latency
system.cpu.dcache.blocked_cycles::no_mshrs        97472                       # number of cycles access was blocked
system.cpu.dcache.blocked_cycles::no_targets            0                       # number of cycles access was blocked
system.cpu.dcache.blocked::no_mshrs              1366                       # number of cycles access was blocked
system.cpu.dcache.blocked::no_targets               0                       # number of cycles access was blocked
system.cpu.dcache.avg_blocked_cycles::no_mshrs    71.355783                       # average number of cycles each access was blocked
system.cpu.dcache.avg_blocked_cycles::no_targets          nan                       # average number of cycles each access was blocked
system.cpu.dcache.writebacks::.writebacks         2917                       # number of writebacks
system.cpu.dcache.writebacks::total              2917                       # number of writebacks
system.cpu.dcache.demand_mshr_hits::.cpu.data         4502                       # number of demand (read+write) MSHR hits
system.cpu.dcache.demand_mshr_hits::total         4502                       # number of demand (read+write) MSHR hits
system.cpu.dcache.overall_mshr_hits::.cpu.data         4502                       # number of overall MSHR hits
system.cpu.dcache.overall_mshr_hits::total         4502                       # number of overall MSHR hits
system.cpu.dcache.demand_mshr_misses::.cpu.data         4104                       # number of demand (read+write) MSHR misses
system.cpu.dcache.demand_mshr_misses::total         4104                       # number of demand (read+write) MSHR misses
system.cpu.dcache.overall_mshr_misses::.cpu.data         4106                       # number of overall MSHR misses
system.cpu.dcache.overall_mshr_misses::total         4106                       # number of overall MSHR misses
system.cpu.dcache.demand_mshr_miss_latency::.cpu.data    333380406                       # number of demand (read+write) MSHR miss cycles
system.cpu.dcache.demand_mshr_miss_latency::total    333380406                       # number of demand (read+write) MSHR miss cycles
system.cpu.dcache.overall_mshr_miss_latency::.cpu.data    333565406                       # number of overall MSHR miss cycles
system.cpu.dcache.overall_mshr_miss_latency::total    333565406                       # number of overall MSHR miss cycles
system.cpu.dcache.demand_mshr_miss_rate::.cpu.data     0.011977                       # mshr miss rate for demand accesses
system.cpu.dcache.demand_mshr_miss_rate::total     0.011977                       # mshr miss rate for demand accesses
system.cpu.dcache.overall_mshr_miss_rate::.cpu.data     0.011959                       # mshr miss rate for overall accesses
system.cpu.dcache.overall_mshr_miss_rate::total     0.011959                       # mshr miss rate for overall accesses
system.cpu.dcache.demand_avg_mshr_miss_latency::.cpu.data 81233.042398                       # average overall mshr miss latency
system.cpu.dcache.demand_avg_mshr_miss_latency::total 81233.042398                       # average overall mshr miss latency
system.cpu.dcache.overall_avg_mshr_miss_latency::.cpu.data 81238.530443                       # average overall mshr miss latency
system.cpu.dcache.overall_avg_mshr_miss_latency::total 81238.530443                       # average overall mshr miss latency
system.cpu.dcache.replacements                   3083                       # number of replacements
system.cpu.dcache.ReadReq_hits::.cpu.data       161576                       # number of ReadReq hits
system.cpu.dcache.ReadReq_hits::total          161576                       # number of ReadReq hits
system.cpu.dcache.ReadReq_misses::.cpu.data         2430                       # number of ReadReq misses
system.cpu.dcache.ReadReq_misses::total          2430                       # number of ReadReq misses
system.cpu.dcache.ReadReq_miss_latency::.cpu.data    166730500                       # number of ReadReq miss cycles
system.cpu.dcache.ReadReq_miss_latency::total    166730500                       # number of ReadReq miss cycles
system.cpu.dcache.ReadReq_accesses::.cpu.data       164006                       # number of ReadReq accesses(hits+misses)
system.cpu.dcache.ReadReq_accesses::total       164006                       # number of ReadReq accesses(hits+misses)
system.cpu.dcache.ReadReq_miss_rate::.cpu.data     0.014817                       # miss rate for ReadReq accesses
system.cpu.dcache.ReadReq_miss_rate::total     0.014817                       # miss rate for ReadReq accesses
system.cpu.dcache.ReadReq_avg_miss_latency::.cpu.data 68613.374486                       # average ReadReq miss latency
system.cpu.dcache.ReadReq_avg_miss_latency::total 68613.374486                       # average ReadReq miss latency
system.cpu.dcache.ReadReq_mshr_hits::.cpu.data         1649                       # number of ReadReq MSHR hits
system.cpu.dcache.ReadReq_mshr_hits::total         1649                       # number of ReadReq MSHR hits
system.cpu.dcache.ReadReq_mshr_misses::.cpu.data          781                       # number of ReadReq MSHR misses
system.cpu.dcache.ReadReq_mshr_misses::total          781                       # number of ReadReq MSHR misses
system.cpu.dcache.ReadReq_mshr_miss_latency::.cpu.data     67914000                       # number of ReadReq MSHR miss cycles
system.cpu.dcache.ReadReq_mshr_miss_latency::total     67914000                       # number of ReadReq MSHR miss cycles
system.cpu.dcache.ReadReq_mshr_miss_rate::.cpu.data     0.004762                       # mshr miss rate for ReadReq accesses
system.cpu.dcache.ReadReq_mshr_miss_rate::total     0.004762                       # mshr miss rate for ReadReq accesses
system.cpu.dcache.ReadReq_avg_mshr_miss_latency::.cpu.data 86957.746479                       # average ReadReq mshr miss latency
system.cpu.dcache.ReadReq_avg_mshr_miss_latency::total 86957.746479                       # average ReadReq mshr miss latency
system.cpu.dcache.WriteReq_hits::.cpu.data       172473                       # number of WriteReq hits
system.cpu.dcache.WriteReq_hits::total         172473                       # number of WriteReq hits
system.cpu.dcache.WriteReq_misses::.cpu.data         6163                       # number of WriteReq misses
system.cpu.dcache.WriteReq_misses::total         6163                       # number of WriteReq misses
system.cpu.dcache.WriteReq_miss_latency::.cpu.data    468526791                       # number of WriteReq miss cycles
system.cpu.dcache.WriteReq_miss_latency::total    468526791                       # number of WriteReq miss cycles
system.cpu.dcache.WriteReq_accesses::.cpu.data       178636                       # number of WriteReq accesses(hits+misses)
system.cpu.dcache.WriteReq_accesses::total       178636                       # number of WriteReq accesses(hits+misses)
system.cpu.dcache.WriteReq_miss_rate::.cpu.data     0.034500                       # miss rate for WriteReq accesses
system.cpu.dcache.WriteReq_miss_rate::total     0.034500                       # miss rate for WriteReq accesses
system.cpu.dcache.WriteReq_avg_miss_latency::.cpu.data 76022.520039                       # average WriteReq miss latency
system.cpu.dcache.WriteReq_avg_miss_latency::total 76022.520039                       # average WriteReq miss latency
system.cpu.dcache.WriteReq_mshr_hits::.cpu.data         2853                       # number of WriteReq MSHR hits
system.cpu.dcache.WriteReq_mshr_hits::total         2853                       # number of WriteReq MSHR hits
system.cpu.dcache.WriteReq_mshr_misses::.cpu.data         3310                       # number of WriteReq MSHR misses
system.cpu.dcache.WriteReq_mshr_misses::total         3310                       # number of WriteReq MSHR misses
system.cpu.dcache.WriteReq_mshr_miss_latency::.cpu.data    265065911                       # number of WriteReq MSHR miss cycles
system.cpu.dcache.WriteReq_mshr_miss_latency::total    265065911                       # number of WriteReq MSHR miss cycles
system.cpu.dcache.WriteReq_mshr_miss_rate::.cpu.data     0.018529                       # mshr miss rate for WriteReq accesses
system.cpu.dcache.WriteReq_mshr_miss_rate::total     0.018529                       # mshr miss rate for WriteReq accesses
system.cpu.dcache.WriteReq_avg_mshr_miss_latency::.cpu.data 80080.335650                       # average WriteReq mshr miss latency
system.cpu.dcache.WriteReq_avg_mshr_miss_latency::total 80080.335650                       # average WriteReq mshr miss latency
system.cpu.dcache.SoftPFReq_hits::.cpu.data          610                       # number of SoftPFReq hits
system.cpu.dcache.SoftPFReq_hits::total           610                       # number of SoftPFReq hits
system.cpu.dcache.SoftPFReq_misses::.cpu.data           77                       # number of SoftPFReq misses
system.cpu.dcache.SoftPFReq_misses::total           77                       # number of SoftPFReq misses
system.cpu.dcache.SoftPFReq_accesses::.cpu.data          687                       # number of SoftPFReq accesses(hits+misses)
system.cpu.dcache.SoftPFReq_accesses::total          687                       # number of SoftPFReq accesses(hits+misses)
system.cpu.dcache.SoftPFReq_miss_rate::.cpu.data     0.112082                       # miss rate for SoftPFReq accesses
system.cpu.dcache.SoftPFReq_miss_rate::total     0.112082                       # miss rate for SoftPFReq accesses
system.cpu.dcache.SoftPFReq_mshr_misses::.cpu.data            2                       # number of SoftPFReq MSHR misses
system.cpu.dcache.SoftPFReq_mshr_misses::total            2                       # number of SoftPFReq MSHR misses
system.cpu.dcache.SoftPFReq_mshr_miss_latency::.cpu.data       185000                       # number of SoftPFReq MSHR miss cycles
system.cpu.dcache.SoftPFReq_mshr_miss_latency::total       185000                       # number of SoftPFReq MSHR miss cycles
system.cpu.dcache.SoftPFReq_mshr_miss_rate::.cpu.data     0.002911                       # mshr miss rate for SoftPFReq accesses
system.cpu.dcache.SoftPFReq_mshr_miss_rate::total     0.002911                       # mshr miss rate for SoftPFReq accesses
system.cpu.dcache.SoftPFReq_avg_mshr_miss_latency::.cpu.data        92500                       # average SoftPFReq mshr miss latency
system.cpu.dcache.SoftPFReq_avg_mshr_miss_latency::total        92500                       # average SoftPFReq mshr miss latency
system.cpu.dcache.WriteLineReq_misses::.cpu.data           13                       # number of WriteLineReq misses
system.cpu.dcache.WriteLineReq_misses::total           13                       # number of WriteLineReq misses
system.cpu.dcache.WriteLineReq_miss_latency::.cpu.data       413495                       # number of WriteLineReq miss cycles
system.cpu.dcache.WriteLineReq_miss_latency::total       413495                       # number of WriteLineReq miss cycles
system.cpu.dcache.WriteLineReq_accesses::.cpu.data           13                       # number of WriteLineReq accesses(hits+misses)
system.cpu.dcache.WriteLineReq_accesses::total           13                       # number of WriteLineReq accesses(hits+misses)
system.cpu.dcache.WriteLineReq_miss_rate::.cpu.data            1                       # miss rate for WriteLineReq accesses
system.cpu.dcache.WriteLineReq_miss_rate::total            1                       # miss rate for WriteLineReq accesses
system.cpu.dcache.WriteLineReq_avg_miss_latency::.cpu.data 31807.307692                       # average WriteLineReq miss latency
system.cpu.dcache.WriteLineReq_avg_miss_latency::total 31807.307692                       # average WriteLineReq miss latency
system.cpu.dcache.WriteLineReq_mshr_misses::.cpu.data           13                       # number of WriteLineReq MSHR misses
system.cpu.dcache.WriteLineReq_mshr_misses::total           13                       # number of WriteLineReq MSHR misses
system.cpu.dcache.WriteLineReq_mshr_miss_latency::.cpu.data       400495                       # number of WriteLineReq MSHR miss cycles
system.cpu.dcache.WriteLineReq_mshr_miss_latency::total       400495                       # number of WriteLineReq MSHR miss cycles
system.cpu.dcache.WriteLineReq_mshr_miss_rate::.cpu.data            1                       # mshr miss rate for WriteLineReq accesses
system.cpu.dcache.WriteLineReq_mshr_miss_rate::total            1                       # mshr miss rate for WriteLineReq accesses
system.cpu.dcache.WriteLineReq_avg_mshr_miss_latency::.cpu.data 30807.307692                       # average WriteLineReq mshr miss latency
system.cpu.dcache.WriteLineReq_avg_mshr_miss_latency::total 30807.307692                       # average WriteLineReq mshr miss latency
system.cpu.dcache.LoadLockedReq_hits::.cpu.data         1240                       # number of LoadLockedReq hits
system.cpu.dcache.LoadLockedReq_hits::total         1240                       # number of LoadLockedReq hits
system.cpu.dcache.LoadLockedReq_misses::.cpu.data            2                       # number of LoadLockedReq misses
system.cpu.dcache.LoadLockedReq_misses::total            2                       # number of LoadLockedReq misses
system.cpu.dcache.LoadLockedReq_miss_latency::.cpu.data       158500                       # number of LoadLockedReq miss cycles
system.cpu.dcache.LoadLockedReq_miss_latency::total       158500                       # number of LoadLockedReq miss cycles
system.cpu.dcache.LoadLockedReq_accesses::.cpu.data         1242                       # number of LoadLockedReq accesses(hits+misses)
system.cpu.dcache.LoadLockedReq_accesses::total         1242                       # number of LoadLockedReq accesses(hits+misses)
system.cpu.dcache.LoadLockedReq_miss_rate::.cpu.data     0.001610                       # miss rate for LoadLockedReq accesses
system.cpu.dcache.LoadLockedReq_miss_rate::total     0.001610                       # miss rate for LoadLockedReq accesses
system.cpu.dcache.LoadLockedReq_avg_miss_latency::.cpu.data        79250                       # average LoadLockedReq miss latency
system.cpu.dcache.LoadLockedReq_avg_miss_latency::total        79250                       # average LoadLockedReq miss latency
system.cpu.dcache.LoadLockedReq_mshr_hits::.cpu.data            1                       # number of LoadLockedReq MSHR hits
system.cpu.dcache.LoadLockedReq_mshr_hits::total            1                       # number of LoadLockedReq MSHR hits
system.cpu.dcache.LoadLockedReq_mshr_misses::.cpu.data            1                       # number of LoadLockedReq MSHR misses
system.cpu.dcache.LoadLockedReq_mshr_misses::total            1                       # number of LoadLockedReq MSHR misses
system.cpu.dcache.LoadLockedReq_mshr_miss_latency::.cpu.data        85000                       # number of LoadLockedReq MSHR miss cycles
system.cpu.dcache.LoadLockedReq_mshr_miss_latency::total        85000                       # number of LoadLockedReq MSHR miss cycles
system.cpu.dcache.LoadLockedReq_mshr_miss_rate::.cpu.data     0.000805                       # mshr miss rate for LoadLockedReq accesses
system.cpu.dcache.LoadLockedReq_mshr_miss_rate::total     0.000805                       # mshr miss rate for LoadLockedReq accesses
system.cpu.dcache.LoadLockedReq_avg_mshr_miss_latency::.cpu.data        85000                       # average LoadLockedReq mshr miss latency
system.cpu.dcache.LoadLockedReq_avg_mshr_miss_latency::total        85000                       # average LoadLockedReq mshr miss latency
system.cpu.dcache.StoreCondReq_hits::.cpu.data         1232                       # number of StoreCondReq hits
system.cpu.dcache.StoreCondReq_hits::total         1232                       # number of StoreCondReq hits
system.cpu.dcache.StoreCondReq_accesses::.cpu.data         1232                       # number of StoreCondReq accesses(hits+misses)
system.cpu.dcache.StoreCondReq_accesses::total         1232                       # number of StoreCondReq accesses(hits+misses)
system.cpu.dcache.power_state.pwrStateResidencyTicks::UNDEFINED    633600000                       # Cumulative time (in ticks) in various power states
system.cpu.dcache.tags.tagsinuse           883.306718                       # Cycle average of tags in use
system.cpu.dcache.tags.total_refs              341238                       # Total number of references to valid blocks.
system.cpu.dcache.tags.sampled_refs              4107                       # Sample count of references to valid blocks.
system.cpu.dcache.tags.avg_refs             83.086925                       # Average number of references to valid blocks.
system.cpu.dcache.tags.warmup_cycle            176500                       # Cycle when the warmup percentage was hit.
system.cpu.dcache.tags.occ_blocks::.cpu.data   883.306718                       # Average occupied blocks per requestor
system.cpu.dcache.tags.occ_percent::.cpu.data     0.862604                       # Average percentage of cache occupancy
system.cpu.dcache.tags.occ_percent::total     0.862604                       # Average percentage of cache occupancy
system.cpu.dcache.tags.occ_task_id_blocks::1024         1024                       # Occupied blocks per task id
system.cpu.dcache.tags.age_task_id_blocks_1024::0           65                       # Occupied blocks per task id
system.cpu.dcache.tags.age_task_id_blocks_1024::1          568                       # Occupied blocks per task id
system.cpu.dcache.tags.age_task_id_blocks_1024::2          391                       # Occupied blocks per task id
system.cpu.dcache.tags.occ_task_id_percent::1024            1                       # Percentage of cache occupancy per task id
system.cpu.dcache.tags.tag_accesses            695739                       # Number of tag accesses
system.cpu.dcache.tags.data_accesses           695739                       # Number of data accesses
system.cpu.dcache.tags.power_state.pwrStateResidencyTicks::UNDEFINED    633600000                       # Cumulative time (in ticks) in various power states
system.cpu.power_state.pwrStateResidencyTicks::ON    633600000                       # Cumulative time (in ticks) in various power states

---------- End Simulation Statistics   ----------
