
---------- Begin Simulation Statistics ----------
final_tick                                 4906969500                       # Number of ticks from beginning of simulation (restored from checkpoints and never reset)
host_inst_rate                                  38546                       # Simulator instruction rate (inst/s)
host_mem_usage                                 865348                       # Number of bytes of host memory used
host_op_rate                                    87656                       # Simulator op (including micro ops) rate (op/s)
host_seconds                                    25.94                       # Real time elapsed on the host
host_tick_rate                              189140567                       # Simulator tick rate (ticks/s)
sim_freq                                 1000000000000                       # Frequency of simulated ticks
sim_insts                                     1000001                       # Number of instructions simulated
sim_ops                                       2274104                       # Number of ops (including micro ops) simulated
sim_seconds                                  0.004907                       # Number of seconds simulated
sim_ticks                                  4906969500                       # Number of ticks simulated
system.cpu.branchPred.BTBCorrect                    0                       # Number of correct BTB predictions (this stat may not work properly.
system.cpu.branchPred.BTBHitPct             98.939776                       # BTB Hit Percentage
system.cpu.branchPred.BTBHits                   79975                       # Number of BTB hits
system.cpu.branchPred.BTBLookups                80832                       # Number of BTB lookups
system.cpu.branchPred.RASInCorrect                  1                       # Number of incorrect RAS predictions.
system.cpu.branchPred.condIncorrect               740                       # Number of conditional branches incorrect
system.cpu.branchPred.condPredicted             82585                       # Number of conditional branches predicted
system.cpu.branchPred.indirectHits                 36                       # Number of indirect target hits.
system.cpu.branchPred.indirectLookups             203                       # Number of indirect predictor lookups.
system.cpu.branchPred.indirectMisses              167                       # Number of indirect misses.
system.cpu.branchPred.lookups                   84036                       # Number of BP lookups
system.cpu.branchPred.usedRAS                     469                       # Number of times the RAS was used to get a target.
system.cpu.branchPredindirectMispredicted           60                       # Number of mispredicted indirect branches.
system.cpu.cc_regfile_reads                    224922                       # number of cc regfile reads
system.cpu.cc_regfile_writes                   224849                       # number of cc regfile writes
system.cpu.commit.amos                              0                       # Number of atomic instructions committed
system.cpu.commit.branchMispredicts               516                       # The number of times a branch was mispredicted
system.cpu.commit.branches                      72859                       # Number of branches committed
system.cpu.commit.bw_lim_events                  3233                       # number cycles where commit BW limit reached
system.cpu.commit.commitNonSpecStalls              25                       # The number of times commit has been forced to stall to communicate backwards
system.cpu.commit.commitSquashedInsts          117731                       # The number of squashed insts skipped by commit
system.cpu.commit.committedInsts              1000020                       # Number of instructions committed
system.cpu.commit.committedOps                2274123                       # Number of ops (including micro ops) committed
system.cpu.commit.committed_per_cycle::samples      9756914                       # Number of insts commited each cycle
system.cpu.commit.committed_per_cycle::mean     0.233078                       # Number of insts commited each cycle
system.cpu.commit.committed_per_cycle::stdev     0.923187                       # Number of insts commited each cycle
system.cpu.commit.committed_per_cycle::underflows            0      0.00%      0.00% # Number of insts commited each cycle
system.cpu.commit.committed_per_cycle::0      8930309     91.53%     91.53% # Number of insts commited each cycle
system.cpu.commit.committed_per_cycle::1       211130      2.16%     93.69% # Number of insts commited each cycle
system.cpu.commit.committed_per_cycle::2       264121      2.71%     96.40% # Number of insts commited each cycle
system.cpu.commit.committed_per_cycle::3       193061      1.98%     98.38% # Number of insts commited each cycle
system.cpu.commit.committed_per_cycle::4          882      0.01%     98.39% # Number of insts commited each cycle
system.cpu.commit.committed_per_cycle::5        27303      0.28%     98.67% # Number of insts commited each cycle
system.cpu.commit.committed_per_cycle::6        98464      1.01%     99.68% # Number of insts commited each cycle
system.cpu.commit.committed_per_cycle::7        28411      0.29%     99.97% # Number of insts commited each cycle
system.cpu.commit.committed_per_cycle::8         3233      0.03%    100.00% # Number of insts commited each cycle
system.cpu.commit.committed_per_cycle::overflows            0      0.00%    100.00% # Number of insts commited each cycle
system.cpu.commit.committed_per_cycle::min_value            0                       # Number of insts commited each cycle
system.cpu.commit.committed_per_cycle::max_value            8                       # Number of insts commited each cycle
system.cpu.commit.committed_per_cycle::total      9756914                       # Number of insts commited each cycle
system.cpu.commit.fp_insts                          0                       # Number of committed floating point instructions.
system.cpu.commit.function_calls                  212                       # Number of function calls committed.
system.cpu.commit.int_insts                   2202108                       # Number of committed integer instructions.
system.cpu.commit.loads                          1635                       # Number of loads committed
system.cpu.commit.membars                          14                       # Number of memory barriers committed
system.cpu.commit.op_class_0::No_OpClass           18      0.00%      0.00% # Class of committed instruction
system.cpu.commit.op_class_0::IntAlu           856639     37.67%     37.67% # Class of committed instruction
system.cpu.commit.op_class_0::IntMult              35      0.00%     37.67% # Class of committed instruction
system.cpu.commit.op_class_0::IntDiv                3      0.00%     37.67% # Class of committed instruction
system.cpu.commit.op_class_0::FloatAdd              0      0.00%     37.67% # Class of committed instruction
system.cpu.commit.op_class_0::FloatCmp              2      0.00%     37.67% # Class of committed instruction
system.cpu.commit.op_class_0::FloatCvt              0      0.00%     37.67% # Class of committed instruction
system.cpu.commit.op_class_0::FloatMult             0      0.00%     37.67% # Class of committed instruction
system.cpu.commit.op_class_0::FloatMultAcc            0      0.00%     37.67% # Class of committed instruction
system.cpu.commit.op_class_0::FloatDiv              0      0.00%     37.67% # Class of committed instruction
system.cpu.commit.op_class_0::FloatMisc             5      0.00%     37.67% # Class of committed instruction
system.cpu.commit.op_class_0::FloatSqrt             0      0.00%     37.67% # Class of committed instruction
system.cpu.commit.op_class_0::SimdAdd              50      0.00%     37.67% # Class of committed instruction
system.cpu.commit.op_class_0::SimdAddAcc            0      0.00%     37.67% # Class of committed instruction
system.cpu.commit.op_class_0::SimdAlu              75      0.00%     37.68% # Class of committed instruction
system.cpu.commit.op_class_0::SimdCmp              72      0.00%     37.68% # Class of committed instruction
system.cpu.commit.op_class_0::SimdCvt               0      0.00%     37.68% # Class of committed instruction
system.cpu.commit.op_class_0::SimdMisc             50      0.00%     37.68% # Class of committed instruction
system.cpu.commit.op_class_0::SimdMult              0      0.00%     37.68% # Class of committed instruction
system.cpu.commit.op_class_0::SimdMultAcc            0      0.00%     37.68% # Class of committed instruction
system.cpu.commit.op_class_0::SimdShift             0      0.00%     37.68% # Class of committed instruction
system.cpu.commit.op_class_0::SimdShiftAcc            0      0.00%     37.68% # Class of committed instruction
system.cpu.commit.op_class_0::SimdDiv               0      0.00%     37.68% # Class of committed instruction
system.cpu.commit.op_class_0::SimdSqrt              0      0.00%     37.68% # Class of committed instruction
system.cpu.commit.op_class_0::SimdFloatAdd            0      0.00%     37.68% # Class of committed instruction
system.cpu.commit.op_class_0::SimdFloatAlu            0      0.00%     37.68% # Class of committed instruction
system.cpu.commit.op_class_0::SimdFloatCmp            0      0.00%     37.68% # Class of committed instruction
system.cpu.commit.op_class_0::SimdFloatCvt            0      0.00%     37.68% # Class of committed instruction
system.cpu.commit.op_class_0::SimdFloatDiv            0      0.00%     37.68% # Class of committed instruction
system.cpu.commit.op_class_0::SimdFloatMisc            0      0.00%     37.68% # Class of committed instruction
system.cpu.commit.op_class_0::SimdFloatMult            0      0.00%     37.68% # Class of committed instruction
system.cpu.commit.op_class_0::SimdFloatMultAcc            0      0.00%     37.68% # Class of committed instruction
system.cpu.commit.op_class_0::SimdFloatSqrt            0      0.00%     37.68% # Class of committed instruction
system.cpu.commit.op_class_0::SimdReduceAdd            0      0.00%     37.68% # Class of committed instruction
system.cpu.commit.op_class_0::SimdReduceAlu            0      0.00%     37.68% # Class of committed instruction
system.cpu.commit.op_class_0::SimdReduceCmp            0      0.00%     37.68% # Class of committed instruction
system.cpu.commit.op_class_0::SimdFloatReduceAdd            0      0.00%     37.68% # Class of committed instruction
system.cpu.commit.op_class_0::SimdFloatReduceCmp            0      0.00%     37.68% # Class of committed instruction
system.cpu.commit.op_class_0::SimdAes               0      0.00%     37.68% # Class of committed instruction
system.cpu.commit.op_class_0::SimdAesMix            0      0.00%     37.68% # Class of committed instruction
system.cpu.commit.op_class_0::SimdSha1Hash            0      0.00%     37.68% # Class of committed instruction
system.cpu.commit.op_class_0::SimdSha1Hash2            0      0.00%     37.68% # Class of committed instruction
system.cpu.commit.op_class_0::SimdSha256Hash            0      0.00%     37.68% # Class of committed instruction
system.cpu.commit.op_class_0::SimdSha256Hash2            0      0.00%     37.68% # Class of committed instruction
system.cpu.commit.op_class_0::SimdShaSigma2            0      0.00%     37.68% # Class of committed instruction
system.cpu.commit.op_class_0::SimdShaSigma3            0      0.00%     37.68% # Class of committed instruction
system.cpu.commit.op_class_0::SimdPredAlu            0      0.00%     37.68% # Class of committed instruction
system.cpu.commit.op_class_0::MemRead            1635      0.07%     37.75% # Class of committed instruction
system.cpu.commit.op_class_0::MemWrite        1415539     62.25%    100.00% # Class of committed instruction
system.cpu.commit.op_class_0::FloatMemRead            0      0.00%    100.00% # Class of committed instruction
system.cpu.commit.op_class_0::FloatMemWrite            0      0.00%    100.00% # Class of committed instruction
system.cpu.commit.op_class_0::IprAccess             0      0.00%    100.00% # Class of committed instruction
system.cpu.commit.op_class_0::InstPrefetch            0      0.00%    100.00% # Class of committed instruction
system.cpu.commit.op_class_0::total           2274123                       # Class of committed instruction
system.cpu.commit.refs                        1417174                       # Number of memory references committed
system.cpu.commit.swp_count                         0                       # Number of s/w prefetches committed
system.cpu.commit.vec_insts                   1343403                       # Number of committed Vector instructions.
system.cpu.committedInsts                     1000001                       # Number of Instructions Simulated
system.cpu.committedOps                       2274104                       # Number of Ops (including micro ops) Simulated
system.cpu.cpi                               9.813930                       # CPI: Cycles Per Instruction
system.cpu.cpi_total                         9.813930                       # CPI: Total CPI of All Threads
system.cpu.decode.BlockedCycles               9358586                       # Number of cycles decode is blocked
system.cpu.decode.BranchMispred                   227                       # Number of times decode detected a branch misprediction
system.cpu.decode.BranchResolved                77298                       # Number of times decode resolved a branch
system.cpu.decode.DecodedInsts                2475209                       # Number of instructions handled by decode
system.cpu.decode.IdleCycles                    96223                       # Number of cycles decode is idle
system.cpu.decode.RunCycles                     90164                       # Number of cycles decode is running
system.cpu.decode.SquashCycles                   3304                       # Number of cycles decode is squashing
system.cpu.decode.SquashedInsts                   824                       # Number of squashed instructions handled by decode
system.cpu.decode.UnblockCycles                223782                       # Number of cycles decode is unblocking
system.cpu.dtb.accesses                             0                       # DTB accesses
system.cpu.dtb.align_faults                         0                       # Number of TLB faults due to alignment restrictions
system.cpu.dtb.domain_faults                        0                       # Number of TLB faults due to domain restrictions
system.cpu.dtb.flush_entries                        0                       # Number of entries that have been flushed from TLB
system.cpu.dtb.flush_tlb                            0                       # Number of times complete TLB was flushed
system.cpu.dtb.flush_tlb_asid                       0                       # Number of times TLB was flushed by ASID
system.cpu.dtb.flush_tlb_mva                        0                       # Number of times TLB was flushed by MVA
system.cpu.dtb.flush_tlb_mva_asid                   0                       # Number of times TLB was flushed by MVA & ASID
system.cpu.dtb.hits                                 0                       # DTB hits
system.cpu.dtb.inst_accesses                        0                       # ITB inst accesses
system.cpu.dtb.inst_hits                            0                       # ITB inst hits
system.cpu.dtb.inst_misses                          0                       # ITB inst misses
system.cpu.dtb.misses                               0                       # DTB misses
system.cpu.dtb.perms_faults                         0                       # Number of TLB faults due to permissions restrictions
system.cpu.dtb.prefetch_faults                      0                       # Number of TLB faults due to prefetch
system.cpu.dtb.read_accesses                        0                       # DTB read accesses
system.cpu.dtb.read_hits                            0                       # DTB read hits
system.cpu.dtb.read_misses                          0                       # DTB read misses
system.cpu.dtb.stage2_mmu.stage2_tlb.accesses            0                       # DTB accesses
system.cpu.dtb.stage2_mmu.stage2_tlb.align_faults            0                       # Number of TLB faults due to alignment restrictions
system.cpu.dtb.stage2_mmu.stage2_tlb.domain_faults            0                       # Number of TLB faults due to domain restrictions
system.cpu.dtb.stage2_mmu.stage2_tlb.flush_entries            0                       # Number of entries that have been flushed from TLB
system.cpu.dtb.stage2_mmu.stage2_tlb.flush_tlb            0                       # Number of times complete TLB was flushed
system.cpu.dtb.stage2_mmu.stage2_tlb.flush_tlb_asid            0                       # Number of times TLB was flushed by ASID
system.cpu.dtb.stage2_mmu.stage2_tlb.flush_tlb_mva            0                       # Number of times TLB was flushed by MVA
system.cpu.dtb.stage2_mmu.stage2_tlb.flush_tlb_mva_asid            0                       # Number of times TLB was flushed by MVA & ASID
system.cpu.dtb.stage2_mmu.stage2_tlb.hits            0                       # DTB hits
system.cpu.dtb.stage2_mmu.stage2_tlb.inst_accesses            0                       # ITB inst accesses
system.cpu.dtb.stage2_mmu.stage2_tlb.inst_hits            0                       # ITB inst hits
system.cpu.dtb.stage2_mmu.stage2_tlb.inst_misses            0                       # ITB inst misses
system.cpu.dtb.stage2_mmu.stage2_tlb.misses            0                       # DTB misses
system.cpu.dtb.stage2_mmu.stage2_tlb.perms_faults            0                       # Number of TLB faults due to permissions restrictions
system.cpu.dtb.stage2_mmu.stage2_tlb.prefetch_faults            0                       # Number of TLB faults due to prefetch
system.cpu.dtb.stage2_mmu.stage2_tlb.read_accesses            0                       # DTB read accesses
system.cpu.dtb.stage2_mmu.stage2_tlb.read_hits            0                       # DTB read hits
system.cpu.dtb.stage2_mmu.stage2_tlb.read_misses            0                       # DTB read misses
system.cpu.dtb.stage2_mmu.stage2_tlb.walker.walkRequestOrigin_Requested::Data            0                       # Table walker requests started/completed, data/inst
system.cpu.dtb.stage2_mmu.stage2_tlb.walker.walkRequestOrigin_Requested::Inst            0                       # Table walker requests started/completed, data/inst
system.cpu.dtb.stage2_mmu.stage2_tlb.walker.walkRequestOrigin_Requested::total            0                       # Table walker requests started/completed, data/inst
system.cpu.dtb.stage2_mmu.stage2_tlb.walker.walkRequestOrigin_Completed::Data            0                       # Table walker requests started/completed, data/inst
system.cpu.dtb.stage2_mmu.stage2_tlb.walker.walkRequestOrigin_Completed::Inst            0                       # Table walker requests started/completed, data/inst
system.cpu.dtb.stage2_mmu.stage2_tlb.walker.walkRequestOrigin_Completed::total            0                       # Table walker requests started/completed, data/inst
system.cpu.dtb.stage2_mmu.stage2_tlb.walker.walkRequestOrigin::total            0                       # Table walker requests started/completed, data/inst
system.cpu.dtb.stage2_mmu.stage2_tlb.walker.walks            0                       # Table walker walks requested
system.cpu.dtb.stage2_mmu.stage2_tlb.write_accesses            0                       # DTB write accesses
system.cpu.dtb.stage2_mmu.stage2_tlb.write_hits            0                       # DTB write hits
system.cpu.dtb.stage2_mmu.stage2_tlb.write_misses            0                       # DTB write misses
system.cpu.dtb.walker.walkRequestOrigin_Requested::Data            0                       # Table walker requests started/completed, data/inst
system.cpu.dtb.walker.walkRequestOrigin_Requested::Inst            0                       # Table walker requests started/completed, data/inst
system.cpu.dtb.walker.walkRequestOrigin_Requested::total            0                       # Table walker requests started/completed, data/inst
system.cpu.dtb.walker.walkRequestOrigin_Completed::Data            0                       # Table walker requests started/completed, data/inst
system.cpu.dtb.walker.walkRequestOrigin_Completed::Inst            0                       # Table walker requests started/completed, data/inst
system.cpu.dtb.walker.walkRequestOrigin_Completed::total            0                       # Table walker requests started/completed, data/inst
system.cpu.dtb.walker.walkRequestOrigin::total            0                       # Table walker requests started/completed, data/inst
system.cpu.dtb.walker.walks                         0                       # Table walker walks requested
system.cpu.dtb.write_accesses                       0                       # DTB write accesses
system.cpu.dtb.write_hits                           0                       # DTB write hits
system.cpu.dtb.write_misses                         0                       # DTB write misses
system.cpu.fetch.Branches                       84036                       # Number of branches that fetch encountered
system.cpu.fetch.CacheLines                    165777                       # Number of cache lines fetched
system.cpu.fetch.Cycles                       9589130                       # Number of cycles fetch has run and was not squashing or blocked
system.cpu.fetch.IcacheSquashes                   523                       # Number of outstanding Icache misses that were squashed
system.cpu.fetch.IcacheWaitRetryStallCycles           46                       # Number of stall cycles due to full MSHR
system.cpu.fetch.Insts                        1145097                       # Number of instructions fetch has processed
system.cpu.fetch.MiscStallCycles                    3                       # Number of cycles fetch has spent waiting on interrupts, or bad addresses, or out of MSHRs
system.cpu.fetch.SquashCycles                    7056                       # Number of cycles fetch has spent squashing
system.cpu.fetch.branchRate                  0.008563                       # Number of branch fetches per cycle
system.cpu.fetch.icacheStallCycles             179352                       # Number of cycles fetch is stalled on an Icache miss
system.cpu.fetch.predictedBranches              80480                       # Number of branches that fetch has predicted taken
system.cpu.fetch.rate                        0.116681                       # Number of inst fetches per cycle
system.cpu.fetch.rateDist::samples            9772059                       # Number of instructions fetched each cycle (Total)
system.cpu.fetch.rateDist::mean              0.265497                       # Number of instructions fetched each cycle (Total)
system.cpu.fetch.rateDist::stdev             1.360767                       # Number of instructions fetched each cycle (Total)
system.cpu.fetch.rateDist::underflows               0      0.00%      0.00% # Number of instructions fetched each cycle (Total)
system.cpu.fetch.rateDist::0                  9365306     95.84%     95.84% # Number of instructions fetched each cycle (Total)
system.cpu.fetch.rateDist::1                      449      0.00%     95.84% # Number of instructions fetched each cycle (Total)
system.cpu.fetch.rateDist::2                    81713      0.84%     96.68% # Number of instructions fetched each cycle (Total)
system.cpu.fetch.rateDist::3                      326      0.00%     96.68% # Number of instructions fetched each cycle (Total)
system.cpu.fetch.rateDist::4                      357      0.00%     96.69% # Number of instructions fetched each cycle (Total)
system.cpu.fetch.rateDist::5                      340      0.00%     96.69% # Number of instructions fetched each cycle (Total)
system.cpu.fetch.rateDist::6                    80926      0.83%     97.52% # Number of instructions fetched each cycle (Total)
system.cpu.fetch.rateDist::7                      218      0.00%     97.52% # Number of instructions fetched each cycle (Total)
system.cpu.fetch.rateDist::8                   242424      2.48%    100.00% # Number of instructions fetched each cycle (Total)
system.cpu.fetch.rateDist::overflows                0      0.00%    100.00% # Number of instructions fetched each cycle (Total)
system.cpu.fetch.rateDist::min_value                0                       # Number of instructions fetched each cycle (Total)
system.cpu.fetch.rateDist::max_value                8                       # Number of instructions fetched each cycle (Total)
system.cpu.fetch.rateDist::total              9772059                       # Number of instructions fetched each cycle (Total)
system.cpu.icache.prefetcher.num_hwpf_issued          833                       # number of hwpf issued
system.cpu.icache.prefetcher.pfBufferHit           35                       # number of redundant prefetches already in prefetch queue
system.cpu.icache.prefetcher.pfIdentified          913                       # number of prefetch candidates identified
system.cpu.icache.prefetcher.pfInCache              0                       # number of redundant prefetches already in cache/mshr dropped
system.cpu.icache.prefetcher.pfRemovedFull            0                       # number of prefetches dropped due to prefetch queue size
system.cpu.icache.prefetcher.pfSpanPage           183                       # number of prefetches that crossed the page
system.cpu.idleCycles                           41881                       # Total number of cycles that the CPU has spent unscheduled due to idling
system.cpu.iew.branchMispredicts                  609                       # Number of branch mispredicts detected at execute
system.cpu.iew.exec_branches                    76480                       # Number of branches executed
system.cpu.iew.exec_nop                            34                       # number of nop insts executed
system.cpu.iew.exec_rate                     0.246880                       # Inst execution rate
system.cpu.iew.exec_refs                      1509722                       # number of memory reference insts executed
system.cpu.iew.exec_stores                    1507073                       # Number of stores executed
system.cpu.iew.exec_swp                             0                       # number of swp insts executed
system.cpu.iew.iewBlockCycles                   12375                       # Number of cycles IEW is blocking
system.cpu.iew.iewDispLoadInsts                  2886                       # Number of dispatched load instructions
system.cpu.iew.iewDispNonSpecInsts                 34                       # Number of dispatched non-speculative instructions
system.cpu.iew.iewDispSquashedInsts               225                       # Number of squashed instructions skipped by dispatch
system.cpu.iew.iewDispStoreInsts              1507608                       # Number of dispatched store instructions
system.cpu.iew.iewDispatchedInsts             2425413                       # Number of instructions dispatched to IQ
system.cpu.iew.iewExecLoadInsts                  2649                       # Number of load instructions executed
system.cpu.iew.iewExecSquashedInsts               706                       # Number of squashed instructions skipped in execute
system.cpu.iew.iewExecutedInsts               2422864                       # Number of executed instructions
system.cpu.iew.iewIQFullEvents                      6                       # Number of times the IQ has become full, causing a stall
system.cpu.iew.iewIdleCycles                        0                       # Number of cycles IEW is idle
system.cpu.iew.iewLSQFullEvents               3507859                       # Number of times the LSQ has become full, causing a stall
system.cpu.iew.iewSquashCycles                   3304                       # Number of cycles IEW is squashing
system.cpu.iew.iewUnblockCycles               3505176                       # Number of cycles IEW is unblocking
system.cpu.iew.lsq.thread0.blockedLoads             0                       # Number of blocked loads due to partial load-store forwarding
system.cpu.iew.lsq.thread0.cacheBlocked        137988                       # Number of times an access to memory failed due to the cache being blocked
system.cpu.iew.lsq.thread0.forwLoads               59                       # Number of loads that had data forwarded from stores
system.cpu.iew.lsq.thread0.ignoredResponses            3                       # Number of memory responses ignored because the instruction is squashed
system.cpu.iew.lsq.thread0.invAddrLoads             0                       # Number of loads ignored due to an invalid address
system.cpu.iew.lsq.thread0.invAddrSwpfs             0                       # Number of software prefetches ignored due to an invalid address
system.cpu.iew.lsq.thread0.memOrderViolation           15                       # Number of memory ordering violations
system.cpu.iew.lsq.thread0.rescheduledLoads           24                       # Number of loads that were rescheduled
system.cpu.iew.lsq.thread0.squashedLoads         1251                       # Number of loads squashed
system.cpu.iew.lsq.thread0.squashedStores        92069                       # Number of stores squashed
system.cpu.iew.memOrderViolationEvents             15                       # Number of memory order violations
system.cpu.iew.predictedNotTakenIncorrect          543                       # Number of branches that were predicted not taken incorrectly
system.cpu.iew.predictedTakenIncorrect             66                       # Number of branches that were predicted taken incorrectly
system.cpu.iew.wb_consumers                   1314361                       # num instructions consuming a value
system.cpu.iew.wb_count                       2385706                       # cumulative count of insts written-back
system.cpu.iew.wb_fanout                     0.470210                       # average fanout of values written-back
system.cpu.iew.wb_producers                    618026                       # num instructions producing a value
system.cpu.iew.wb_rate                       0.243094                       # insts written-back per cycle
system.cpu.iew.wb_sent                        2422436                       # cumulative count of insts sent to commit
system.cpu.int_regfile_reads                  2500666                       # number of integer regfile reads
system.cpu.int_regfile_writes                  838986                       # number of integer regfile writes
system.cpu.ipc                               0.101896                       # IPC: Instructions Per Cycle
system.cpu.ipc_total                         0.101896                       # IPC: Total IPC of All Threads
system.cpu.iq.FU_type_0::No_OpClass                20      0.00%      0.00% # Type of FU issued
system.cpu.iq.FU_type_0::IntAlu                913196     37.68%     37.68% # Type of FU issued
system.cpu.iq.FU_type_0::IntMult                   43      0.00%     37.68% # Type of FU issued
system.cpu.iq.FU_type_0::IntDiv                     4      0.00%     37.68% # Type of FU issued
system.cpu.iq.FU_type_0::FloatAdd                   0      0.00%     37.68% # Type of FU issued
system.cpu.iq.FU_type_0::FloatCmp                   2      0.00%     37.68% # Type of FU issued
system.cpu.iq.FU_type_0::FloatCvt                   0      0.00%     37.68% # Type of FU issued
system.cpu.iq.FU_type_0::FloatMult                  0      0.00%     37.68% # Type of FU issued
system.cpu.iq.FU_type_0::FloatMultAcc               0      0.00%     37.68% # Type of FU issued
system.cpu.iq.FU_type_0::FloatDiv                   0      0.00%     37.68% # Type of FU issued
system.cpu.iq.FU_type_0::FloatMisc                  7      0.00%     37.68% # Type of FU issued
system.cpu.iq.FU_type_0::FloatSqrt                  0      0.00%     37.68% # Type of FU issued
system.cpu.iq.FU_type_0::SimdAdd                   58      0.00%     37.69% # Type of FU issued
system.cpu.iq.FU_type_0::SimdAddAcc                 0      0.00%     37.69% # Type of FU issued
system.cpu.iq.FU_type_0::SimdAlu                   87      0.00%     37.69% # Type of FU issued
system.cpu.iq.FU_type_0::SimdCmp                   80      0.00%     37.69% # Type of FU issued
system.cpu.iq.FU_type_0::SimdCvt                    0      0.00%     37.69% # Type of FU issued
system.cpu.iq.FU_type_0::SimdMisc                  57      0.00%     37.69% # Type of FU issued
system.cpu.iq.FU_type_0::SimdMult                   0      0.00%     37.69% # Type of FU issued
system.cpu.iq.FU_type_0::SimdMultAcc                0      0.00%     37.69% # Type of FU issued
system.cpu.iq.FU_type_0::SimdShift                  0      0.00%     37.69% # Type of FU issued
system.cpu.iq.FU_type_0::SimdShiftAcc               0      0.00%     37.69% # Type of FU issued
system.cpu.iq.FU_type_0::SimdDiv                    0      0.00%     37.69% # Type of FU issued
system.cpu.iq.FU_type_0::SimdSqrt                   0      0.00%     37.69% # Type of FU issued
system.cpu.iq.FU_type_0::SimdFloatAdd               0      0.00%     37.69% # Type of FU issued
system.cpu.iq.FU_type_0::SimdFloatAlu               0      0.00%     37.69% # Type of FU issued
system.cpu.iq.FU_type_0::SimdFloatCmp               0      0.00%     37.69% # Type of FU issued
system.cpu.iq.FU_type_0::SimdFloatCvt               0      0.00%     37.69% # Type of FU issued
system.cpu.iq.FU_type_0::SimdFloatDiv               0      0.00%     37.69% # Type of FU issued
system.cpu.iq.FU_type_0::SimdFloatMisc              0      0.00%     37.69% # Type of FU issued
system.cpu.iq.FU_type_0::SimdFloatMult              0      0.00%     37.69% # Type of FU issued
system.cpu.iq.FU_type_0::SimdFloatMultAcc            0      0.00%     37.69% # Type of FU issued
system.cpu.iq.FU_type_0::SimdFloatSqrt              0      0.00%     37.69% # Type of FU issued
system.cpu.iq.FU_type_0::SimdReduceAdd              0      0.00%     37.69% # Type of FU issued
system.cpu.iq.FU_type_0::SimdReduceAlu              0      0.00%     37.69% # Type of FU issued
system.cpu.iq.FU_type_0::SimdReduceCmp              0      0.00%     37.69% # Type of FU issued
system.cpu.iq.FU_type_0::SimdFloatReduceAdd            0      0.00%     37.69% # Type of FU issued
system.cpu.iq.FU_type_0::SimdFloatReduceCmp            0      0.00%     37.69% # Type of FU issued
system.cpu.iq.FU_type_0::SimdAes                    0      0.00%     37.69% # Type of FU issued
system.cpu.iq.FU_type_0::SimdAesMix                 0      0.00%     37.69% # Type of FU issued
system.cpu.iq.FU_type_0::SimdSha1Hash               0      0.00%     37.69% # Type of FU issued
system.cpu.iq.FU_type_0::SimdSha1Hash2              0      0.00%     37.69% # Type of FU issued
system.cpu.iq.FU_type_0::SimdSha256Hash             0      0.00%     37.69% # Type of FU issued
system.cpu.iq.FU_type_0::SimdSha256Hash2            0      0.00%     37.69% # Type of FU issued
system.cpu.iq.FU_type_0::SimdShaSigma2              0      0.00%     37.69% # Type of FU issued
system.cpu.iq.FU_type_0::SimdShaSigma3              0      0.00%     37.69% # Type of FU issued
system.cpu.iq.FU_type_0::SimdPredAlu                0      0.00%     37.69% # Type of FU issued
system.cpu.iq.FU_type_0::MemRead                 2808      0.12%     37.81% # Type of FU issued
system.cpu.iq.FU_type_0::MemWrite             1507208     62.19%    100.00% # Type of FU issued
system.cpu.iq.FU_type_0::FloatMemRead               0      0.00%    100.00% # Type of FU issued
system.cpu.iq.FU_type_0::FloatMemWrite              0      0.00%    100.00% # Type of FU issued
system.cpu.iq.FU_type_0::IprAccess                  0      0.00%    100.00% # Type of FU issued
system.cpu.iq.FU_type_0::InstPrefetch               0      0.00%    100.00% # Type of FU issued
system.cpu.iq.FU_type_0::total                2423570                       # Type of FU issued
system.cpu.iq.fp_alu_accesses                       0                       # Number of floating point alu accesses
system.cpu.iq.fp_inst_queue_reads                   0                       # Number of floating instruction queue reads
system.cpu.iq.fp_inst_queue_wakeup_accesses            0                       # Number of floating instruction queue wakeup accesses
system.cpu.iq.fp_inst_queue_writes                  0                       # Number of floating instruction queue writes
system.cpu.iq.fu_busy_cnt                       34841                       # FU busy when requested
system.cpu.iq.fu_busy_rate                   0.014376                       # FU busy rate (busy events/executed inst)
system.cpu.iq.fu_full::No_OpClass                   0      0.00%      0.00% # attempts to use FU when none available
system.cpu.iq.fu_full::IntAlu                     100      0.29%      0.29% # attempts to use FU when none available
system.cpu.iq.fu_full::IntMult                      3      0.01%      0.30% # attempts to use FU when none available
system.cpu.iq.fu_full::IntDiv                       0      0.00%      0.30% # attempts to use FU when none available
system.cpu.iq.fu_full::FloatAdd                     0      0.00%      0.30% # attempts to use FU when none available
system.cpu.iq.fu_full::FloatCmp                     0      0.00%      0.30% # attempts to use FU when none available
system.cpu.iq.fu_full::FloatCvt                     0      0.00%      0.30% # attempts to use FU when none available
system.cpu.iq.fu_full::FloatMult                    0      0.00%      0.30% # attempts to use FU when none available
system.cpu.iq.fu_full::FloatMultAcc                 0      0.00%      0.30% # attempts to use FU when none available
system.cpu.iq.fu_full::FloatDiv                     0      0.00%      0.30% # attempts to use FU when none available
system.cpu.iq.fu_full::FloatMisc                    0      0.00%      0.30% # attempts to use FU when none available
system.cpu.iq.fu_full::FloatSqrt                    0      0.00%      0.30% # attempts to use FU when none available
system.cpu.iq.fu_full::SimdAdd                      0      0.00%      0.30% # attempts to use FU when none available
system.cpu.iq.fu_full::SimdAddAcc                   0      0.00%      0.30% # attempts to use FU when none available
system.cpu.iq.fu_full::SimdAlu                      1      0.00%      0.30% # attempts to use FU when none available
system.cpu.iq.fu_full::SimdCmp                      3      0.01%      0.31% # attempts to use FU when none available
system.cpu.iq.fu_full::SimdCvt                      0      0.00%      0.31% # attempts to use FU when none available
system.cpu.iq.fu_full::SimdMisc                     0      0.00%      0.31% # attempts to use FU when none available
system.cpu.iq.fu_full::SimdMult                     0      0.00%      0.31% # attempts to use FU when none available
system.cpu.iq.fu_full::SimdMultAcc                  0      0.00%      0.31% # attempts to use FU when none available
system.cpu.iq.fu_full::SimdShift                    0      0.00%      0.31% # attempts to use FU when none available
system.cpu.iq.fu_full::SimdShiftAcc                 0      0.00%      0.31% # attempts to use FU when none available
system.cpu.iq.fu_full::SimdDiv                      0      0.00%      0.31% # attempts to use FU when none available
system.cpu.iq.fu_full::SimdSqrt                     0      0.00%      0.31% # attempts to use FU when none available
system.cpu.iq.fu_full::SimdFloatAdd                 0      0.00%      0.31% # attempts to use FU when none available
system.cpu.iq.fu_full::SimdFloatAlu                 0      0.00%      0.31% # attempts to use FU when none available
system.cpu.iq.fu_full::SimdFloatCmp                 0      0.00%      0.31% # attempts to use FU when none available
system.cpu.iq.fu_full::SimdFloatCvt                 0      0.00%      0.31% # attempts to use FU when none available
system.cpu.iq.fu_full::SimdFloatDiv                 0      0.00%      0.31% # attempts to use FU when none available
system.cpu.iq.fu_full::SimdFloatMisc                0      0.00%      0.31% # attempts to use FU when none available
system.cpu.iq.fu_full::SimdFloatMult                0      0.00%      0.31% # attempts to use FU when none available
system.cpu.iq.fu_full::SimdFloatMultAcc             0      0.00%      0.31% # attempts to use FU when none available
system.cpu.iq.fu_full::SimdFloatSqrt                0      0.00%      0.31% # attempts to use FU when none available
system.cpu.iq.fu_full::SimdReduceAdd                0      0.00%      0.31% # attempts to use FU when none available
system.cpu.iq.fu_full::SimdReduceAlu                0      0.00%      0.31% # attempts to use FU when none available
system.cpu.iq.fu_full::SimdReduceCmp                0      0.00%      0.31% # attempts to use FU when none available
system.cpu.iq.fu_full::SimdFloatReduceAdd            0      0.00%      0.31% # attempts to use FU when none available
system.cpu.iq.fu_full::SimdFloatReduceCmp            0      0.00%      0.31% # attempts to use FU when none available
system.cpu.iq.fu_full::SimdAes                      0      0.00%      0.31% # attempts to use FU when none available
system.cpu.iq.fu_full::SimdAesMix                   0      0.00%      0.31% # attempts to use FU when none available
system.cpu.iq.fu_full::SimdSha1Hash                 0      0.00%      0.31% # attempts to use FU when none available
system.cpu.iq.fu_full::SimdSha1Hash2                0      0.00%      0.31% # attempts to use FU when none available
system.cpu.iq.fu_full::SimdSha256Hash               0      0.00%      0.31% # attempts to use FU when none available
system.cpu.iq.fu_full::SimdSha256Hash2              0      0.00%      0.31% # attempts to use FU when none available
system.cpu.iq.fu_full::SimdShaSigma2                0      0.00%      0.31% # attempts to use FU when none available
system.cpu.iq.fu_full::SimdShaSigma3                0      0.00%      0.31% # attempts to use FU when none available
system.cpu.iq.fu_full::SimdPredAlu                  0      0.00%      0.31% # attempts to use FU when none available
system.cpu.iq.fu_full::MemRead                     51      0.15%      0.45% # attempts to use FU when none available
system.cpu.iq.fu_full::MemWrite                 34683     99.55%    100.00% # attempts to use FU when none available
system.cpu.iq.fu_full::FloatMemRead                 0      0.00%    100.00% # attempts to use FU when none available
system.cpu.iq.fu_full::FloatMemWrite                0      0.00%    100.00% # attempts to use FU when none available
system.cpu.iq.fu_full::IprAccess                    0      0.00%    100.00% # attempts to use FU when none available
system.cpu.iq.fu_full::InstPrefetch                 0      0.00%    100.00% # attempts to use FU when none available
system.cpu.iq.int_alu_accesses                 994699                       # Number of integer alu accesses
system.cpu.iq.int_inst_queue_reads           11761294                       # Number of integer instruction queue reads
system.cpu.iq.int_inst_queue_wakeup_accesses       987508                       # Number of integer instruction queue wakeup accesses
system.cpu.iq.int_inst_queue_writes           1061775                       # Number of integer instruction queue writes
system.cpu.iq.iqInstsAdded                    2425345                       # Number of instructions added to the IQ (excludes non-spec)
system.cpu.iq.iqInstsIssued                   2423570                       # Number of instructions issued
system.cpu.iq.iqNonSpecInstsAdded                  34                       # Number of non-speculative instructions added to the IQ
system.cpu.iq.iqSquashedInstsExamined          151274                       # Number of squashed instructions iterated over during squash; mainly for profiling
system.cpu.iq.iqSquashedInstsIssued                66                       # Number of squashed instructions issued
system.cpu.iq.iqSquashedNonSpecRemoved              9                       # Number of squashed non-spec instructions that were removed
system.cpu.iq.iqSquashedOperandsExamined       139040                       # Number of squashed operands that are examined and possibly removed from graph
system.cpu.iq.issued_per_cycle::samples       9772059                       # Number of insts issued each cycle
system.cpu.iq.issued_per_cycle::mean         0.248010                       # Number of insts issued each cycle
system.cpu.iq.issued_per_cycle::stdev        0.907535                       # Number of insts issued each cycle
system.cpu.iq.issued_per_cycle::underflows            0      0.00%      0.00% # Number of insts issued each cycle
system.cpu.iq.issued_per_cycle::0             8893867     91.01%     91.01% # Number of insts issued each cycle
system.cpu.iq.issued_per_cycle::1              186688      1.91%     92.92% # Number of insts issued each cycle
system.cpu.iq.issued_per_cycle::2              294408      3.01%     95.94% # Number of insts issued each cycle
system.cpu.iq.issued_per_cycle::3              118398      1.21%     97.15% # Number of insts issued each cycle
system.cpu.iq.issued_per_cycle::4              160442      1.64%     98.79% # Number of insts issued each cycle
system.cpu.iq.issued_per_cycle::5               73978      0.76%     99.55% # Number of insts issued each cycle
system.cpu.iq.issued_per_cycle::6               32228      0.33%     99.88% # Number of insts issued each cycle
system.cpu.iq.issued_per_cycle::7                8554      0.09%     99.96% # Number of insts issued each cycle
system.cpu.iq.issued_per_cycle::8                3496      0.04%    100.00% # Number of insts issued each cycle
system.cpu.iq.issued_per_cycle::overflows            0      0.00%    100.00% # Number of insts issued each cycle
system.cpu.iq.issued_per_cycle::min_value            0                       # Number of insts issued each cycle
system.cpu.iq.issued_per_cycle::max_value            8                       # Number of insts issued each cycle
system.cpu.iq.issued_per_cycle::total         9772059                       # Number of insts issued each cycle
system.cpu.iq.rate                           0.246952                       # Inst issue rate
system.cpu.iq.vec_alu_accesses                1463692                       # Number of vector alu accesses
system.cpu.iq.vec_inst_queue_reads            2892812                       # Number of vector instruction queue reads
system.cpu.iq.vec_inst_queue_wakeup_accesses      1398198                       # Number of vector instruction queue wakeup accesses
system.cpu.iq.vec_inst_queue_writes           1514893                       # Number of vector instruction queue writes
system.cpu.itb.accesses                             0                       # DTB accesses
system.cpu.itb.align_faults                         0                       # Number of TLB faults due to alignment restrictions
system.cpu.itb.domain_faults                        0                       # Number of TLB faults due to domain restrictions
system.cpu.itb.flush_entries                        0                       # Number of entries that have been flushed from TLB
system.cpu.itb.flush_tlb                            0                       # Number of times complete TLB was flushed
system.cpu.itb.flush_tlb_asid                       0                       # Number of times TLB was flushed by ASID
system.cpu.itb.flush_tlb_mva                        0                       # Number of times TLB was flushed by MVA
system.cpu.itb.flush_tlb_mva_asid                   0                       # Number of times TLB was flushed by MVA & ASID
system.cpu.itb.hits                                 0                       # DTB hits
system.cpu.itb.inst_accesses                        0                       # ITB inst accesses
system.cpu.itb.inst_hits                            0                       # ITB inst hits
system.cpu.itb.inst_misses                          0                       # ITB inst misses
system.cpu.itb.misses                               0                       # DTB misses
system.cpu.itb.perms_faults                         0                       # Number of TLB faults due to permissions restrictions
system.cpu.itb.prefetch_faults                      0                       # Number of TLB faults due to prefetch
system.cpu.itb.read_accesses                        0                       # DTB read accesses
system.cpu.itb.read_hits                            0                       # DTB read hits
system.cpu.itb.read_misses                          0                       # DTB read misses
system.cpu.itb.stage2_mmu.stage2_tlb.accesses            0                       # DTB accesses
system.cpu.itb.stage2_mmu.stage2_tlb.align_faults            0                       # Number of TLB faults due to alignment restrictions
system.cpu.itb.stage2_mmu.stage2_tlb.domain_faults            0                       # Number of TLB faults due to domain restrictions
system.cpu.itb.stage2_mmu.stage2_tlb.flush_entries            0                       # Number of entries that have been flushed from TLB
system.cpu.itb.stage2_mmu.stage2_tlb.flush_tlb            0                       # Number of times complete TLB was flushed
system.cpu.itb.stage2_mmu.stage2_tlb.flush_tlb_asid            0                       # Number of times TLB was flushed by ASID
system.cpu.itb.stage2_mmu.stage2_tlb.flush_tlb_mva            0                       # Number of times TLB was flushed by MVA
system.cpu.itb.stage2_mmu.stage2_tlb.flush_tlb_mva_asid            0                       # Number of times TLB was flushed by MVA & ASID
system.cpu.itb.stage2_mmu.stage2_tlb.hits            0                       # DTB hits
system.cpu.itb.stage2_mmu.stage2_tlb.inst_accesses            0                       # ITB inst accesses
system.cpu.itb.stage2_mmu.stage2_tlb.inst_hits            0                       # ITB inst hits
system.cpu.itb.stage2_mmu.stage2_tlb.inst_misses            0                       # ITB inst misses
system.cpu.itb.stage2_mmu.stage2_tlb.misses            0                       # DTB misses
system.cpu.itb.stage2_mmu.stage2_tlb.perms_faults            0                       # Number of TLB faults due to permissions restrictions
system.cpu.itb.stage2_mmu.stage2_tlb.prefetch_faults            0                       # Number of TLB faults due to prefetch
system.cpu.itb.stage2_mmu.stage2_tlb.read_accesses            0                       # DTB read accesses
system.cpu.itb.stage2_mmu.stage2_tlb.read_hits            0                       # DTB read hits
system.cpu.itb.stage2_mmu.stage2_tlb.read_misses            0                       # DTB read misses
system.cpu.itb.stage2_mmu.stage2_tlb.walker.walkRequestOrigin_Requested::Data            0                       # Table walker requests started/completed, data/inst
system.cpu.itb.stage2_mmu.stage2_tlb.walker.walkRequestOrigin_Requested::Inst            0                       # Table walker requests started/completed, data/inst
system.cpu.itb.stage2_mmu.stage2_tlb.walker.walkRequestOrigin_Requested::total            0                       # Table walker requests started/completed, data/inst
system.cpu.itb.stage2_mmu.stage2_tlb.walker.walkRequestOrigin_Completed::Data            0                       # Table walker requests started/completed, data/inst
system.cpu.itb.stage2_mmu.stage2_tlb.walker.walkRequestOrigin_Completed::Inst            0                       # Table walker requests started/completed, data/inst
system.cpu.itb.stage2_mmu.stage2_tlb.walker.walkRequestOrigin_Completed::total            0                       # Table walker requests started/completed, data/inst
system.cpu.itb.stage2_mmu.stage2_tlb.walker.walkRequestOrigin::total            0                       # Table walker requests started/completed, data/inst
system.cpu.itb.stage2_mmu.stage2_tlb.walker.walks            0                       # Table walker walks requested
system.cpu.itb.stage2_mmu.stage2_tlb.write_accesses            0                       # DTB write accesses
system.cpu.itb.stage2_mmu.stage2_tlb.write_hits            0                       # DTB write hits
system.cpu.itb.stage2_mmu.stage2_tlb.write_misses            0                       # DTB write misses
system.cpu.itb.walker.walkRequestOrigin_Requested::Data            0                       # Table walker requests started/completed, data/inst
system.cpu.itb.walker.walkRequestOrigin_Requested::Inst            0                       # Table walker requests started/completed, data/inst
system.cpu.itb.walker.walkRequestOrigin_Requested::total            0                       # Table walker requests started/completed, data/inst
system.cpu.itb.walker.walkRequestOrigin_Completed::Data            0                       # Table walker requests started/completed, data/inst
system.cpu.itb.walker.walkRequestOrigin_Completed::Inst            0                       # Table walker requests started/completed, data/inst
system.cpu.itb.walker.walkRequestOrigin_Completed::total            0                       # Table walker requests started/completed, data/inst
system.cpu.itb.walker.walkRequestOrigin::total            0                       # Table walker requests started/completed, data/inst
system.cpu.itb.walker.walks                         0                       # Table walker walks requested
system.cpu.itb.write_accesses                       0                       # DTB write accesses
system.cpu.itb.write_hits                           0                       # DTB write hits
system.cpu.itb.write_misses                         0                       # DTB write misses
system.cpu.memDep0.conflictingLoads                 9                       # Number of conflicting loads.
system.cpu.memDep0.conflictingStores                6                       # Number of conflicting stores.
system.cpu.memDep0.insertedLoads                 2886                       # Number of loads inserted to the mem dependence unit.
system.cpu.memDep0.insertedStores             1507608                       # Number of stores inserted to the mem dependence unit.
system.cpu.misc_regfile_reads                 4684606                       # number of misc regfile reads
system.cpu.misc_regfile_writes                     60                       # number of misc regfile writes
system.cpu.numCycles                          9813940                       # number of cpu cycles simulated
system.cpu.numWorkItemsCompleted                    0                       # number of work items this cpu completed
system.cpu.numWorkItemsStarted                      0                       # number of work items this cpu started
system.cpu.rename.BlockCycles                 3517840                       # Number of cycles rename is blocking
system.cpu.rename.CommittedMaps               1001630                       # Number of HB maps that are committed
system.cpu.rename.IQFullEvents                     24                       # Number of times rename has blocked due to IQ full
system.cpu.rename.IdleCycles                   198184                       # Number of cycles rename is idle
system.cpu.rename.ROBFullEvents                     3                       # Number of times rename has blocked due to ROB full
system.cpu.rename.RenameLookups               7053048                       # Number of register rename lookups that rename has made
system.cpu.rename.RenamedInsts                2437513                       # Number of instructions processed by rename
system.cpu.rename.RenamedOperands             1071698                       # Number of destination operands rename has renamed
system.cpu.rename.RunCycles                    211428                       # Number of cycles rename is running
system.cpu.rename.SQFullEvents                5746232                       # Number of times rename has blocked due to SQ full
system.cpu.rename.SquashCycles                   3304                       # Number of cycles rename is squashing
system.cpu.rename.UnblockCycles               5838360                       # Number of cycles rename is unblocking
system.cpu.rename.UndoneMaps                    70064                       # Number of HB maps that are undone due to squashing
system.cpu.rename.int_rename_lookups          2516085                       # Number of integer rename lookups
system.cpu.rename.serializeStallCycles           2943                       # count of cycles rename stalled for serializing inst
system.cpu.rename.serializingInsts                107                       # count of serializing insts renamed
system.cpu.rename.skidInsts                   1790953                       # count of insts added to the skid buffer
system.cpu.rename.tempSerializingInsts             34                       # count of temporary serializing insts renamed
system.cpu.rename.vec_rename_lookups          1436843                       # Number of vector rename lookups
system.cpu.rob.rob_reads                     12109434                       # The number of ROB reads
system.cpu.rob.rob_writes                     4798864                       # The number of ROB writes
system.cpu.timesIdled                             410                       # Number of times that the entire CPU went into an idle state and unscheduled itself
system.cpu.vec_regfile_reads                  1429206                       # number of vector regfile reads
system.cpu.vec_regfile_writes                     336                       # number of vector regfile writes
system.cpu.workload.numSyscalls                    10                       # Number of system calls
system.membus.snoop_filter.hit_multi_requests            0                       # Number of requests hitting in the snoop filter with multiple (>1) holders of the requested data.
system.membus.snoop_filter.hit_multi_snoops            0                       # Number of snoops hitting in the snoop filter with multiple (>1) holders of the requested data.
system.membus.snoop_filter.hit_single_requests       144439                       # Number of requests hitting in the snoop filter with a single holder of the requested data.
system.membus.snoop_filter.hit_single_snoops            0                       # Number of snoops hitting in the snoop filter with a single holder of the requested data.
system.membus.snoop_filter.tot_requests        321904                       # Total number of requests made to the snoop filter.
system.membus.snoop_filter.tot_snoops               0                       # Total number of snoops made to the snoop filter.
system.tol2bus.snoop_filter.hit_multi_requests            1                       # Number of requests hitting in the snoop filter with multiple (>1) holders of the requested data.
system.tol2bus.snoop_filter.hit_multi_snoops            0                       # Number of snoops hitting in the snoop filter with multiple (>1) holders of the requested data.
system.tol2bus.snoop_filter.hit_single_requests       176311                       # Number of requests hitting in the snoop filter with a single holder of the requested data.
system.tol2bus.snoop_filter.hit_single_snoops          240                       # Number of snoops hitting in the snoop filter with a single holder of the requested data.
system.tol2bus.snoop_filter.tot_requests       353890                       # Total number of requests made to the snoop filter.
system.tol2bus.snoop_filter.tot_snoops            240                       # Total number of snoops made to the snoop filter.
system.membus.trans_dist::ReadResp                636                       # Transaction distribution
system.membus.trans_dist::WritebackDirty       144065                       # Transaction distribution
system.membus.trans_dist::CleanEvict              374                       # Transaction distribution
system.membus.trans_dist::ReadExReq            173920                       # Transaction distribution
system.membus.trans_dist::ReadExResp           173919                       # Transaction distribution
system.membus.trans_dist::ReadSharedReq           636                       # Transaction distribution
system.membus.trans_dist::InvalidateReq          2909                       # Transaction distribution
system.membus.pkt_count_system.l2.mem_side::system.mem_ctrls.port       496459                       # Packet count per connected master and slave (bytes)
system.membus.pkt_count::total                 496459                       # Packet count per connected master and slave (bytes)
system.membus.pkt_size_system.l2.mem_side::system.mem_ctrls.port     20391680                       # Cumulative packet size per connected master and slave (bytes)
system.membus.pkt_size::total                20391680                       # Cumulative packet size per connected master and slave (bytes)
system.membus.snoops                                0                       # Total snoops (count)
system.membus.snoopTraffic                          0                       # Total snoop traffic (bytes)
system.membus.snoop_fanout::samples            177465                       # Request fanout histogram
system.membus.snoop_fanout::mean                    0                       # Request fanout histogram
system.membus.snoop_fanout::stdev                   0                       # Request fanout histogram
system.membus.snoop_fanout::underflows              0      0.00%      0.00% # Request fanout histogram
system.membus.snoop_fanout::0                  177465    100.00%    100.00% # Request fanout histogram
system.membus.snoop_fanout::1                       0      0.00%    100.00% # Request fanout histogram
system.membus.snoop_fanout::overflows               0      0.00%    100.00% # Request fanout histogram
system.membus.snoop_fanout::min_value               0                       # Request fanout histogram
system.membus.snoop_fanout::max_value               0                       # Request fanout histogram
system.membus.snoop_fanout::total              177465                       # Request fanout histogram
system.membus.reqLayer0.occupancy           935262500                       # Layer occupancy (ticks)
system.membus.reqLayer0.utilization              19.1                       # Layer utilization (%)
system.membus.respLayer1.occupancy          907346250                       # Layer occupancy (ticks)
system.membus.respLayer1.utilization             18.5                       # Layer utilization (%)
system.membus.power_state.pwrStateResidencyTicks::UNDEFINED   4906969500                       # Cumulative time (in ticks) in various power states
system.tol2bus.trans_dist::ReadResp               747                       # Transaction distribution
system.tol2bus.trans_dist::WritebackDirty       319891                       # Transaction distribution
system.tol2bus.trans_dist::WritebackClean          393                       # Transaction distribution
system.tol2bus.trans_dist::CleanEvict             706                       # Transaction distribution
system.tol2bus.trans_dist::ReadExReq           173923                       # Transaction distribution
system.tol2bus.trans_dist::ReadExResp          173919                       # Transaction distribution
system.tol2bus.trans_dist::ReadCleanReq           633                       # Transaction distribution
system.tol2bus.trans_dist::ReadSharedReq          114                       # Transaction distribution
system.tol2bus.trans_dist::InvalidateReq         2909                       # Transaction distribution
system.tol2bus.trans_dist::InvalidateResp         2909                       # Transaction distribution
system.tol2bus.pkt_count_system.cpu.icache.mem_side::system.l2.cpu_side         1659                       # Packet count per connected master and slave (bytes)
system.tol2bus.pkt_count_system.cpu.dcache.mem_side::system.l2.cpu_side       529806                       # Packet count per connected master and slave (bytes)
system.tol2bus.pkt_count::total                531465                       # Packet count per connected master and slave (bytes)
system.tol2bus.pkt_size_system.cpu.icache.mem_side::system.l2.cpu_side        65664                       # Cumulative packet size per connected master and slave (bytes)
system.tol2bus.pkt_size_system.cpu.dcache.mem_side::system.l2.cpu_side     22390976                       # Cumulative packet size per connected master and slave (bytes)
system.tol2bus.pkt_size::total               22456640                       # Cumulative packet size per connected master and slave (bytes)
system.tol2bus.snoops                          144679                       # Total snoops (count)
system.tol2bus.snoopTraffic                   9220160                       # Total snoop traffic (bytes)
system.tol2bus.snoop_fanout::samples           322258                       # Request fanout histogram
system.tol2bus.snoop_fanout::mean            0.000748                       # Request fanout histogram
system.tol2bus.snoop_fanout::stdev           0.027337                       # Request fanout histogram
system.tol2bus.snoop_fanout::underflows             0      0.00%      0.00% # Request fanout histogram
system.tol2bus.snoop_fanout::0                 322017     99.93%     99.93% # Request fanout histogram
system.tol2bus.snoop_fanout::1                    241      0.07%    100.00% # Request fanout histogram
system.tol2bus.snoop_fanout::2                      0      0.00%    100.00% # Request fanout histogram
system.tol2bus.snoop_fanout::overflows              0      0.00%    100.00% # Request fanout histogram
system.tol2bus.snoop_fanout::min_value              0                       # Request fanout histogram
system.tol2bus.snoop_fanout::max_value              1                       # Request fanout histogram
system.tol2bus.snoop_fanout::total             322258                       # Request fanout histogram
system.tol2bus.reqLayer0.occupancy          353180438                       # Layer occupancy (ticks)
system.tol2bus.reqLayer0.utilization              7.2                       # Layer utilization (%)
system.tol2bus.respLayer1.occupancy         262504000                       # Layer occupancy (ticks)
system.tol2bus.respLayer1.utilization             5.3                       # Layer utilization (%)
system.tol2bus.respLayer0.occupancy            949500                       # Layer occupancy (ticks)
system.tol2bus.respLayer0.utilization             0.0                       # Layer utilization (%)
system.tol2bus.power_state.pwrStateResidencyTicks::UNDEFINED   4906969500                       # Cumulative time (in ticks) in various power states
system.voltage_domain.voltage                       1                       # Voltage in Volts
system.clk_domain.clock                          1000                       # Clock period in ticks
system.l2.demand_hits::.cpu.inst                   67                       # number of demand (read+write) hits
system.l2.demand_hits::.cpu.icache.prefetcher           44                       # number of demand (read+write) hits
system.l2.demand_hits::total                      111                       # number of demand (read+write) hits
system.l2.overall_hits::.cpu.inst                  67                       # number of overall hits
system.l2.overall_hits::.cpu.icache.prefetcher           44                       # number of overall hits
system.l2.overall_hits::total                     111                       # number of overall hits
system.l2.demand_misses::.cpu.inst                522                       # number of demand (read+write) misses
system.l2.demand_misses::.cpu.data             174037                       # number of demand (read+write) misses
system.l2.demand_misses::total                 174559                       # number of demand (read+write) misses
system.l2.overall_misses::.cpu.inst               522                       # number of overall misses
system.l2.overall_misses::.cpu.data            174037                       # number of overall misses
system.l2.overall_misses::total                174559                       # number of overall misses
system.l2.demand_miss_latency::.cpu.inst     41009000                       # number of demand (read+write) miss cycles
system.l2.demand_miss_latency::.cpu.data  18019282000                       # number of demand (read+write) miss cycles
system.l2.demand_miss_latency::total      18060291000                       # number of demand (read+write) miss cycles
system.l2.overall_miss_latency::.cpu.inst     41009000                       # number of overall miss cycles
system.l2.overall_miss_latency::.cpu.data  18019282000                       # number of overall miss cycles
system.l2.overall_miss_latency::total     18060291000                       # number of overall miss cycles
system.l2.demand_accesses::.cpu.inst              589                       # number of demand (read+write) accesses
system.l2.demand_accesses::.cpu.data           174037                       # number of demand (read+write) accesses
system.l2.demand_accesses::.cpu.icache.prefetcher           44                       # number of demand (read+write) accesses
system.l2.demand_accesses::total               174670                       # number of demand (read+write) accesses
system.l2.overall_accesses::.cpu.inst             589                       # number of overall (read+write) accesses
system.l2.overall_accesses::.cpu.data          174037                       # number of overall (read+write) accesses
system.l2.overall_accesses::.cpu.icache.prefetcher           44                       # number of overall (read+write) accesses
system.l2.overall_accesses::total              174670                       # number of overall (read+write) accesses
system.l2.demand_miss_rate::.cpu.inst        0.886248                       # miss rate for demand accesses
system.l2.demand_miss_rate::.cpu.data               1                       # miss rate for demand accesses
system.l2.demand_miss_rate::total            0.999365                       # miss rate for demand accesses
system.l2.overall_miss_rate::.cpu.inst       0.886248                       # miss rate for overall accesses
system.l2.overall_miss_rate::.cpu.data              1                       # miss rate for overall accesses
system.l2.overall_miss_rate::total           0.999365                       # miss rate for overall accesses
system.l2.demand_avg_miss_latency::.cpu.inst 78561.302682                       # average overall miss latency
system.l2.demand_avg_miss_latency::.cpu.data 103537.075449                       # average overall miss latency
system.l2.demand_avg_miss_latency::total 103462.388075                       # average overall miss latency
system.l2.overall_avg_miss_latency::.cpu.inst 78561.302682                       # average overall miss latency
system.l2.overall_avg_miss_latency::.cpu.data 103537.075449                       # average overall miss latency
system.l2.overall_avg_miss_latency::total 103462.388075                       # average overall miss latency
system.l2.blocked_cycles::no_mshrs                  0                       # number of cycles access was blocked
system.l2.blocked_cycles::no_targets                0                       # number of cycles access was blocked
system.l2.blocked::no_mshrs                         0                       # number of cycles access was blocked
system.l2.blocked::no_targets                       0                       # number of cycles access was blocked
system.l2.avg_blocked_cycles::no_mshrs            nan                       # average number of cycles each access was blocked
system.l2.avg_blocked_cycles::no_targets          nan                       # average number of cycles each access was blocked
system.l2.writebacks::.writebacks              144065                       # number of writebacks
system.l2.writebacks::total                    144065                       # number of writebacks
system.l2.demand_mshr_misses::.cpu.inst           522                       # number of demand (read+write) MSHR misses
system.l2.demand_mshr_misses::.cpu.data        174037                       # number of demand (read+write) MSHR misses
system.l2.demand_mshr_misses::total            174559                       # number of demand (read+write) MSHR misses
system.l2.overall_mshr_misses::.cpu.inst          522                       # number of overall MSHR misses
system.l2.overall_mshr_misses::.cpu.data       174037                       # number of overall MSHR misses
system.l2.overall_mshr_misses::total           174559                       # number of overall MSHR misses
system.l2.demand_mshr_miss_latency::.cpu.inst     35789000                       # number of demand (read+write) MSHR miss cycles
system.l2.demand_mshr_miss_latency::.cpu.data  16278952000                       # number of demand (read+write) MSHR miss cycles
system.l2.demand_mshr_miss_latency::total  16314741000                       # number of demand (read+write) MSHR miss cycles
system.l2.overall_mshr_miss_latency::.cpu.inst     35789000                       # number of overall MSHR miss cycles
system.l2.overall_mshr_miss_latency::.cpu.data  16278952000                       # number of overall MSHR miss cycles
system.l2.overall_mshr_miss_latency::total  16314741000                       # number of overall MSHR miss cycles
system.l2.demand_mshr_miss_rate::.cpu.inst     0.886248                       # mshr miss rate for demand accesses
system.l2.demand_mshr_miss_rate::.cpu.data            1                       # mshr miss rate for demand accesses
system.l2.demand_mshr_miss_rate::total       0.999365                       # mshr miss rate for demand accesses
system.l2.overall_mshr_miss_rate::.cpu.inst     0.886248                       # mshr miss rate for overall accesses
system.l2.overall_mshr_miss_rate::.cpu.data            1                       # mshr miss rate for overall accesses
system.l2.overall_mshr_miss_rate::total      0.999365                       # mshr miss rate for overall accesses
system.l2.demand_avg_mshr_miss_latency::.cpu.inst 68561.302682                       # average overall mshr miss latency
system.l2.demand_avg_mshr_miss_latency::.cpu.data 93537.305286                       # average overall mshr miss latency
system.l2.demand_avg_mshr_miss_latency::total 93462.617224                       # average overall mshr miss latency
system.l2.overall_avg_mshr_miss_latency::.cpu.inst 68561.302682                       # average overall mshr miss latency
system.l2.overall_avg_mshr_miss_latency::.cpu.data 93537.305286                       # average overall mshr miss latency
system.l2.overall_avg_mshr_miss_latency::total 93462.617224                       # average overall mshr miss latency
system.l2.replacements                         144679                       # number of replacements
system.l2.WritebackDirty_hits::.writebacks       175826                       # number of WritebackDirty hits
system.l2.WritebackDirty_hits::total           175826                       # number of WritebackDirty hits
system.l2.WritebackDirty_accesses::.writebacks       175826                       # number of WritebackDirty accesses(hits+misses)
system.l2.WritebackDirty_accesses::total       175826                       # number of WritebackDirty accesses(hits+misses)
system.l2.WritebackClean_hits::.writebacks          393                       # number of WritebackClean hits
system.l2.WritebackClean_hits::total              393                       # number of WritebackClean hits
system.l2.WritebackClean_accesses::.writebacks          393                       # number of WritebackClean accesses(hits+misses)
system.l2.WritebackClean_accesses::total          393                       # number of WritebackClean accesses(hits+misses)
system.l2.ReadExReq_misses::.cpu.data          173923                       # number of ReadExReq misses
system.l2.ReadExReq_misses::total              173923                       # number of ReadExReq misses
system.l2.ReadExReq_miss_latency::.cpu.data  18009340000                       # number of ReadExReq miss cycles
system.l2.ReadExReq_miss_latency::total   18009340000                       # number of ReadExReq miss cycles
system.l2.ReadExReq_accesses::.cpu.data        173923                       # number of ReadExReq accesses(hits+misses)
system.l2.ReadExReq_accesses::total            173923                       # number of ReadExReq accesses(hits+misses)
system.l2.ReadExReq_miss_rate::.cpu.data            1                       # miss rate for ReadExReq accesses
system.l2.ReadExReq_miss_rate::total                1                       # miss rate for ReadExReq accesses
system.l2.ReadExReq_avg_miss_latency::.cpu.data 103547.776890                       # average ReadExReq miss latency
system.l2.ReadExReq_avg_miss_latency::total 103547.776890                       # average ReadExReq miss latency
system.l2.ReadExReq_mshr_misses::.cpu.data       173923                       # number of ReadExReq MSHR misses
system.l2.ReadExReq_mshr_misses::total         173923                       # number of ReadExReq MSHR misses
system.l2.ReadExReq_mshr_miss_latency::.cpu.data  16270150000                       # number of ReadExReq MSHR miss cycles
system.l2.ReadExReq_mshr_miss_latency::total  16270150000                       # number of ReadExReq MSHR miss cycles
system.l2.ReadExReq_mshr_miss_rate::.cpu.data            1                       # mshr miss rate for ReadExReq accesses
system.l2.ReadExReq_mshr_miss_rate::total            1                       # mshr miss rate for ReadExReq accesses
system.l2.ReadExReq_avg_mshr_miss_latency::.cpu.data 93548.006877                       # average ReadExReq mshr miss latency
system.l2.ReadExReq_avg_mshr_miss_latency::total 93548.006877                       # average ReadExReq mshr miss latency
system.l2.ReadCleanReq_hits::.cpu.inst             67                       # number of ReadCleanReq hits
system.l2.ReadCleanReq_hits::.cpu.icache.prefetcher           44                       # number of ReadCleanReq hits
system.l2.ReadCleanReq_hits::total                111                       # number of ReadCleanReq hits
system.l2.ReadCleanReq_misses::.cpu.inst          522                       # number of ReadCleanReq misses
system.l2.ReadCleanReq_misses::total              522                       # number of ReadCleanReq misses
system.l2.ReadCleanReq_miss_latency::.cpu.inst     41009000                       # number of ReadCleanReq miss cycles
system.l2.ReadCleanReq_miss_latency::total     41009000                       # number of ReadCleanReq miss cycles
system.l2.ReadCleanReq_accesses::.cpu.inst          589                       # number of ReadCleanReq accesses(hits+misses)
system.l2.ReadCleanReq_accesses::.cpu.icache.prefetcher           44                       # number of ReadCleanReq accesses(hits+misses)
system.l2.ReadCleanReq_accesses::total            633                       # number of ReadCleanReq accesses(hits+misses)
system.l2.ReadCleanReq_miss_rate::.cpu.inst     0.886248                       # miss rate for ReadCleanReq accesses
[...]
system.cpu.dcache.demand_miss_latency::.cpu.data  91675353738                       # number of demand (read+write) miss cycles
system.cpu.dcache.demand_miss_latency::total  91675353738                       # number of demand (read+write) miss cycles
system.cpu.dcache.overall_miss_latency::.cpu.data  91675353738                       # number of overall miss cycles
system.cpu.dcache.overall_miss_latency::total  91675353738                       # number of overall miss cycles
system.cpu.dcache.demand_accesses::.cpu.data      1418003                       # number of demand (read+write) accesses
system.cpu.dcache.demand_accesses::total      1418003                       # number of demand (read+write) accesses
system.cpu.dcache.overall_accesses::.cpu.data      1418029                       # number of overall (read+write) accesses
system.cpu.dcache.overall_accesses::total      1418029                       # number of overall (read+write) accesses
system.cpu.dcache.demand_miss_rate::.cpu.data     0.847538                       # miss rate for demand accesses
system.cpu.dcache.demand_miss_rate::total     0.847538                       # miss rate for demand accesses
system.cpu.dcache.overall_miss_rate::.cpu.data     0.847524                       # miss rate for overall accesses
system.cpu.dcache.overall_miss_rate::total     0.847524                       # miss rate for overall accesses
system.cpu.dcache.demand_avg_miss_latency::.cpu.data 76280.943890                       # average overall miss latency
system.cpu.dcache.demand_avg_miss_latency::total 76280.943890                       # average overall miss latency
system.cpu.dcache.overall_avg_miss_latency::.cpu.data 76280.816947                       # average overall miss latency
system.cpu.dcache.overall_avg_miss_latency::total 76280.816947                       # average overall miss latency
system.cpu.dcache.blocked_cycles::no_mshrs      8337260                       # number of cycles access was blocked
system.cpu.dcache.blocked_cycles::no_targets            0                       # number of cycles access was blocked
system.cpu.dcache.blocked::no_mshrs            141990                       # number of cycles access was blocked
system.cpu.dcache.blocked::no_targets               0                       # number of cycles access was blocked
system.cpu.dcache.avg_blocked_cycles::no_mshrs    58.717234                       # average number of cycles each access was blocked
system.cpu.dcache.avg_blocked_cycles::no_targets          nan                       # average number of cycles each access was blocked
system.cpu.dcache.writebacks::.writebacks       175826                       # number of writebacks
system.cpu.dcache.writebacks::total            175826                       # number of writebacks
system.cpu.dcache.demand_mshr_hits::.cpu.data      1024869                       # number of demand (read+write) MSHR hits
system.cpu.dcache.demand_mshr_hits::total      1024869                       # number of demand (read+write) MSHR hits
system.cpu.dcache.overall_mshr_hits::.cpu.data      1024869                       # number of overall MSHR hits
system.cpu.dcache.overall_mshr_hits::total      1024869                       # number of overall MSHR hits
system.cpu.dcache.demand_mshr_misses::.cpu.data       176943                       # number of demand (read+write) MSHR misses
system.cpu.dcache.demand_mshr_misses::total       176943                       # number of demand (read+write) MSHR misses
system.cpu.dcache.overall_mshr_misses::.cpu.data       176945                       # number of overall MSHR misses
system.cpu.dcache.overall_mshr_misses::total       176945                       # number of overall MSHR misses
system.cpu.dcache.demand_mshr_miss_latency::.cpu.data  18431074496                       # number of demand (read+write) MSHR miss cycles
system.cpu.dcache.demand_mshr_miss_latency::total  18431074496                       # number of demand (read+write) MSHR miss cycles
system.cpu.dcache.overall_mshr_miss_latency::.cpu.data  18431259496                       # number of overall MSHR miss cycles
system.cpu.dcache.overall_mshr_miss_latency::total  18431259496                       # number of overall MSHR miss cycles
system.cpu.dcache.demand_mshr_miss_rate::.cpu.data     0.124783                       # mshr miss rate for demand accesses
system.cpu.dcache.demand_mshr_miss_rate::total     0.124783                       # mshr miss rate for demand accesses
system.cpu.dcache.overall_mshr_miss_rate::.cpu.data     0.124782                       # mshr miss rate for overall accesses
system.cpu.dcache.overall_mshr_miss_rate::total     0.124782                       # mshr miss rate for overall accesses
system.cpu.dcache.demand_avg_mshr_miss_latency::.cpu.data 104163.908694                       # average overall mshr miss latency
system.cpu.dcache.demand_avg_mshr_miss_latency::total 104163.908694                       # average overall mshr miss latency
system.cpu.dcache.overall_avg_mshr_miss_latency::.cpu.data 104163.776857                       # average overall mshr miss latency
system.cpu.dcache.overall_avg_mshr_miss_latency::total 104163.776857                       # average overall mshr miss latency
system.cpu.dcache.replacements                 175918                       # number of replacements
system.cpu.dcache.ReadReq_hits::.cpu.data         2230                       # number of ReadReq hits
system.cpu.dcache.ReadReq_hits::total            2230                       # number of ReadReq hits
system.cpu.dcache.ReadReq_misses::.cpu.data          248                       # number of ReadReq misses
system.cpu.dcache.ReadReq_misses::total           248                       # number of ReadReq misses
system.cpu.dcache.ReadReq_miss_latency::.cpu.data     18883500                       # number of ReadReq miss cycles
system.cpu.dcache.ReadReq_miss_latency::total     18883500                       # number of ReadReq miss cycles
system.cpu.dcache.ReadReq_accesses::.cpu.data         2478                       # number of ReadReq accesses(hits+misses)
system.cpu.dcache.ReadReq_accesses::total         2478                       # number of ReadReq accesses(hits+misses)
system.cpu.dcache.ReadReq_miss_rate::.cpu.data     0.100081                       # miss rate for ReadReq accesses
system.cpu.dcache.ReadReq_miss_rate::total     0.100081                       # miss rate for ReadReq accesses
system.cpu.dcache.ReadReq_avg_miss_latency::.cpu.data 76143.145161                       # average ReadReq miss latency
system.cpu.dcache.ReadReq_avg_miss_latency::total 76143.145161                       # average ReadReq miss latency
system.cpu.dcache.ReadReq_mshr_hits::.cpu.data          137                       # number of ReadReq MSHR hits
system.cpu.dcache.ReadReq_mshr_hits::total          137                       # number of ReadReq MSHR hits
system.cpu.dcache.ReadReq_mshr_misses::.cpu.data          111                       # number of ReadReq MSHR misses
system.cpu.dcache.ReadReq_mshr_misses::total          111                       # number of ReadReq MSHR misses
system.cpu.dcache.ReadReq_mshr_miss_latency::.cpu.data      9854000                       # number of ReadReq MSHR miss cycles
system.cpu.dcache.ReadReq_mshr_miss_latency::total      9854000                       # number of ReadReq MSHR miss cycles
system.cpu.dcache.ReadReq_mshr_miss_rate::.cpu.data     0.044794                       # mshr miss rate for ReadReq accesses
system.cpu.dcache.ReadReq_mshr_miss_rate::total     0.044794                       # mshr miss rate for ReadReq accesses
system.cpu.dcache.ReadReq_avg_mshr_miss_latency::.cpu.data 88774.774775                       # average ReadReq mshr miss latency
system.cpu.dcache.ReadReq_avg_mshr_miss_latency::total 88774.774775                       # average ReadReq mshr miss latency
system.cpu.dcache.WriteReq_hits::.cpu.data       213961                       # number of WriteReq hits
system.cpu.dcache.WriteReq_hits::total         213961                       # number of WriteReq hits
system.cpu.dcache.WriteReq_misses::.cpu.data      1201557                       # number of WriteReq misses
system.cpu.dcache.WriteReq_misses::total      1201557                       # number of WriteReq misses
system.cpu.dcache.WriteReq_miss_latency::.cpu.data  91656248241                       # number of WriteReq miss cycles
system.cpu.dcache.WriteReq_miss_latency::total  91656248241                       # number of WriteReq miss cycles
system.cpu.dcache.WriteReq_accesses::.cpu.data      1415518                       # number of WriteReq accesses(hits+misses)
system.cpu.dcache.WriteReq_accesses::total      1415518                       # number of WriteReq accesses(hits+misses)
system.cpu.dcache.WriteReq_miss_rate::.cpu.data     0.848846                       # miss rate for WriteReq accesses
system.cpu.dcache.WriteReq_miss_rate::total     0.848846                       # miss rate for WriteReq accesses
system.cpu.dcache.WriteReq_avg_miss_latency::.cpu.data 76281.231969                       # average WriteReq miss latency
system.cpu.dcache.WriteReq_avg_miss_latency::total 76281.231969                       # average WriteReq miss latency
system.cpu.dcache.WriteReq_mshr_hits::.cpu.data      1024732                       # number of WriteReq MSHR hits
system.cpu.dcache.WriteReq_mshr_hits::total      1024732                       # number of WriteReq MSHR hits
system.cpu.dcache.WriteReq_mshr_misses::.cpu.data       176825                       # number of WriteReq MSHR misses
system.cpu.dcache.WriteReq_mshr_misses::total       176825                       # number of WriteReq MSHR misses
system.cpu.dcache.WriteReq_mshr_miss_latency::.cpu.data  18421005499                       # number of WriteReq MSHR miss cycles
system.cpu.dcache.WriteReq_mshr_miss_latency::total  18421005499                       # number of WriteReq MSHR miss cycles
system.cpu.dcache.WriteReq_mshr_miss_rate::.cpu.data     0.124919                       # mshr miss rate for WriteReq accesses
system.cpu.dcache.WriteReq_mshr_miss_rate::total     0.124919                       # mshr miss rate for WriteReq accesses
system.cpu.dcache.WriteReq_avg_mshr_miss_latency::.cpu.data 104176.476737                       # average WriteReq mshr miss latency
system.cpu.dcache.WriteReq_avg_mshr_miss_latency::total 104176.476737                       # average WriteReq mshr miss latency
system.cpu.dcache.SoftPFReq_hits::.cpu.data           24                       # number of SoftPFReq hits
system.cpu.dcache.SoftPFReq_hits::total            24                       # number of SoftPFReq hits
system.cpu.dcache.SoftPFReq_misses::.cpu.data            2                       # number of SoftPFReq misses
system.cpu.dcache.SoftPFReq_misses::total            2                       # number of SoftPFReq misses
system.cpu.dcache.SoftPFReq_accesses::.cpu.data           26                       # number of SoftPFReq accesses(hits+misses)
system.cpu.dcache.SoftPFReq_accesses::total           26                       # number of SoftPFReq accesses(hits+misses)
system.cpu.dcache.SoftPFReq_miss_rate::.cpu.data     0.076923                       # miss rate for SoftPFReq accesses
system.cpu.dcache.SoftPFReq_miss_rate::total     0.076923                       # miss rate for SoftPFReq accesses
system.cpu.dcache.SoftPFReq_mshr_misses::.cpu.data            2                       # number of SoftPFReq MSHR misses
system.cpu.dcache.SoftPFReq_mshr_misses::total            2                       # number of SoftPFReq MSHR misses
system.cpu.dcache.SoftPFReq_mshr_miss_latency::.cpu.data       185000                       # number of SoftPFReq MSHR miss cycles
system.cpu.dcache.SoftPFReq_mshr_miss_latency::total       185000                       # number of SoftPFReq MSHR miss cycles
system.cpu.dcache.SoftPFReq_mshr_miss_rate::.cpu.data     0.076923                       # mshr miss rate for SoftPFReq accesses
system.cpu.dcache.SoftPFReq_mshr_miss_rate::total     0.076923                       # mshr miss rate for SoftPFReq accesses
system.cpu.dcache.SoftPFReq_avg_mshr_miss_latency::.cpu.data        92500                       # average SoftPFReq mshr miss latency
system.cpu.dcache.SoftPFReq_avg_mshr_miss_latency::total        92500                       # average SoftPFReq mshr miss latency
system.cpu.dcache.WriteLineReq_misses::.cpu.data            7                       # number of WriteLineReq misses
system.cpu.dcache.WriteLineReq_misses::total            7                       # number of WriteLineReq misses
system.cpu.dcache.WriteLineReq_miss_latency::.cpu.data       221997                       # number of WriteLineReq miss cycles
system.cpu.dcache.WriteLineReq_miss_latency::total       221997                       # number of WriteLineReq miss cycles
system.cpu.dcache.WriteLineReq_accesses::.cpu.data            7                       # number of WriteLineReq accesses(hits+misses)
system.cpu.dcache.WriteLineReq_accesses::total            7                       # number of WriteLineReq accesses(hits+misses)
system.cpu.dcache.WriteLineReq_miss_rate::.cpu.data            1                       # miss rate for WriteLineReq accesses
system.cpu.dcache.WriteLineReq_miss_rate::total            1                       # miss rate for WriteLineReq accesses
system.cpu.dcache.WriteLineReq_avg_miss_latency::.cpu.data 31713.857143                       # average WriteLineReq miss latency
system.cpu.dcache.WriteLineReq_avg_miss_latency::total 31713.857143                       # average WriteLineReq miss latency
system.cpu.dcache.WriteLineReq_mshr_misses::.cpu.data            7                       # number of WriteLineReq MSHR misses
system.cpu.dcache.WriteLineReq_mshr_misses::total            7                       # number of WriteLineReq MSHR misses
system.cpu.dcache.WriteLineReq_mshr_miss_latency::.cpu.data       214997                       # number of WriteLineReq MSHR miss cycles
system.cpu.dcache.WriteLineReq_mshr_miss_latency::total       214997                       # number of WriteLineReq MSHR miss cycles
system.cpu.dcache.WriteLineReq_mshr_miss_rate::.cpu.data            1                       # mshr miss rate for WriteLineReq accesses
system.cpu.dcache.WriteLineReq_mshr_miss_rate::total            1                       # mshr miss rate for WriteLineReq accesses
system.cpu.dcache.WriteLineReq_avg_mshr_miss_latency::.cpu.data 30713.857143                       # average WriteLineReq mshr miss latency
system.cpu.dcache.WriteLineReq_avg_mshr_miss_latency::total 30713.857143                       # average WriteLineReq mshr miss latency
system.cpu.dcache.LoadLockedReq_hits::.cpu.data           15                       # number of LoadLockedReq hits
system.cpu.dcache.LoadLockedReq_hits::total           15                       # number of LoadLockedReq hits
system.cpu.dcache.LoadLockedReq_misses::.cpu.data            1                       # number of LoadLockedReq misses
system.cpu.dcache.LoadLockedReq_misses::total            1                       # number of LoadLockedReq misses
system.cpu.dcache.LoadLockedReq_miss_latency::.cpu.data        78500                       # number of LoadLockedReq miss cycles
system.cpu.dcache.LoadLockedReq_miss_latency::total        78500                       # number of LoadLockedReq miss cycles
system.cpu.dcache.LoadLockedReq_accesses::.cpu.data           16                       # number of LoadLockedReq accesses(hits+misses)
system.cpu.dcache.LoadLockedReq_accesses::total           16                       # number of LoadLockedReq accesses(hits+misses)
system.cpu.dcache.LoadLockedReq_miss_rate::.cpu.data     0.062500                       # miss rate for LoadLockedReq accesses
system.cpu.dcache.LoadLockedReq_miss_rate::total     0.062500                       # miss rate for LoadLockedReq accesses
system.cpu.dcache.LoadLockedReq_avg_miss_latency::.cpu.data        78500                       # average LoadLockedReq miss latency
system.cpu.dcache.LoadLockedReq_avg_miss_latency::total        78500                       # average LoadLockedReq miss latency
system.cpu.dcache.LoadLockedReq_mshr_misses::.cpu.data            1                       # number of LoadLockedReq MSHR misses
system.cpu.dcache.LoadLockedReq_mshr_misses::total            1                       # number of LoadLockedReq MSHR misses
system.cpu.dcache.LoadLockedReq_mshr_miss_latency::.cpu.data        77500                       # number of LoadLockedReq MSHR miss cycles
system.cpu.dcache.LoadLockedReq_mshr_miss_latency::total        77500                       # number of LoadLockedReq MSHR miss cycles
system.cpu.dcache.LoadLockedReq_mshr_miss_rate::.cpu.data     0.062500                       # mshr miss rate for LoadLockedReq accesses
system.cpu.dcache.LoadLockedReq_mshr_miss_rate::total     0.062500                       # mshr miss rate for LoadLockedReq accesses
system.cpu.dcache.LoadLockedReq_avg_mshr_miss_latency::.cpu.data        77500                       # average LoadLockedReq mshr miss latency
system.cpu.dcache.LoadLockedReq_avg_mshr_miss_latency::total        77500                       # average LoadLockedReq mshr miss latency
system.cpu.dcache.StoreCondReq_hits::.cpu.data           14                       # number of StoreCondReq hits
system.cpu.dcache.StoreCondReq_hits::total           14                       # number of StoreCondReq hits
system.cpu.dcache.StoreCondReq_accesses::.cpu.data           14                       # number of StoreCondReq accesses(hits+misses)
system.cpu.dcache.StoreCondReq_accesses::total           14                       # number of StoreCondReq accesses(hits+misses)
system.cpu.dcache.power_state.pwrStateResidencyTicks::UNDEFINED   4906969500                       # Cumulative time (in ticks) in various power states
system.cpu.dcache.tags.tagsinuse          1016.620270                       # Cycle average of tags in use
system.cpu.dcache.tags.total_refs              393186                       # Total number of references to valid blocks.
system.cpu.dcache.tags.sampled_refs            176942                       # Sample count of references to valid blocks.
system.cpu.dcache.tags.avg_refs              2.222118                       # Average number of references to valid blocks.
system.cpu.dcache.tags.warmup_cycle            176500                       # Cycle when the warmup percentage was hit.
system.cpu.dcache.tags.occ_blocks::.cpu.data  1016.620270                       # Average occupied blocks per requestor
system.cpu.dcache.tags.occ_percent::.cpu.data     0.992793                       # Average percentage of cache occupancy
system.cpu.dcache.tags.occ_percent::total     0.992793                       # Average percentage of cache occupancy
system.cpu.dcache.tags.occ_task_id_blocks::1024         1024                       # Occupied blocks per task id
system.cpu.dcache.tags.age_task_id_blocks_1024::0          335                       # Occupied blocks per task id
system.cpu.dcache.tags.age_task_id_blocks_1024::1          689                       # Occupied blocks per task id
system.cpu.dcache.tags.occ_task_id_percent::1024            1                       # Percentage of cache occupancy per task id
system.cpu.dcache.tags.tag_accesses           3013060                       # Number of tag accesses
system.cpu.dcache.tags.data_accesses          3013060                       # Number of data accesses
system.cpu.dcache.tags.power_state.pwrStateResidencyTicks::UNDEFINED   4906969500                       # Cumulative time (in ticks) in various power states
system.cpu.power_state.pwrStateResidencyTicks::ON   4906969500                       # Cumulative time (in ticks) in various power states

---------- End Simulation Statistics   ----------
