
---------- Begin Simulation Statistics ----------
final_tick                                 3113714500                       # Number of ticks from beginning of simulation (restored from checkpoints and never reset)
host_inst_rate                                 255486                       # Simulator instruction rate (inst/s)
host_mem_usage                                 881700                       # Number of bytes of host memory used
host_op_rate                                   287984                       # Simulator op (including micro ops) rate (op/s)
host_seconds                                    39.14                       # Real time elapsed on the host
host_tick_rate                               79550674                       # Simulator tick rate (ticks/s)
sim_freq                                 1000000000000                       # Frequency of simulated ticks
sim_insts                                    10000000                       # Number of instructions simulated
sim_ops                                      11272041                       # Number of ops (including micro ops) simulated
sim_seconds                                  0.003114                       # Number of seconds simulated
sim_ticks                                  3113714500                       # Number of ticks simulated
system.cpu.branchPred.BTBCorrect                    0                       # Number of correct BTB predictions (this stat may not work properly.
system.cpu.branchPred.BTBHitPct             99.661125                       # BTB Hit Percentage
system.cpu.branchPred.BTBHits                 1249311                       # Number of BTB hits
system.cpu.branchPred.BTBLookups              1253559                       # Number of BTB lookups
system.cpu.branchPred.RASInCorrect                 20                       # Number of incorrect RAS predictions.
system.cpu.branchPred.condIncorrect             19585                       # Number of conditional branches incorrect
system.cpu.branchPred.condPredicted           1890420                       # Number of conditional branches predicted
system.cpu.branchPred.indirectHits              99635                       # Number of indirect target hits.
system.cpu.branchPred.indirectLookups          100714                       # Number of indirect predictor lookups.
system.cpu.branchPred.indirectMisses             1079                       # Number of indirect misses.
system.cpu.branchPred.lookups                 2917805                       # Number of BP lookups
system.cpu.branchPred.usedRAS                  382904                       # Number of times the RAS was used to get a target.
system.cpu.branchPredindirectMispredicted          528                       # Number of mispredicted indirect branches.
system.cpu.cc_regfile_reads                   5063217                       # number of cc regfile reads
system.cpu.cc_regfile_writes                  3961449                       # number of cc regfile writes
system.cpu.commit.amos                              0                       # Number of atomic instructions committed
system.cpu.commit.branchMispredicts             17903                       # The number of times a branch was mispredicted
system.cpu.commit.branches                    2769411                       # Number of branches committed
system.cpu.commit.bw_lim_events                458193                       # number cycles where commit BW limit reached
system.cpu.commit.commitNonSpecStalls             540                       # The number of times commit has been forced to stall to communicate backwards
system.cpu.commit.commitSquashedInsts          600141                       # The number of squashed insts skipped by commit
system.cpu.commit.committedInsts             10003358                       # Number of instructions committed
system.cpu.commit.committedOps               11275399                       # Number of ops (including micro ops) committed
system.cpu.commit.committed_per_cycle::samples      6034775                       # Number of insts commited each cycle
system.cpu.commit.committed_per_cycle::mean     1.868404                       # Number of insts commited each cycle
system.cpu.commit.committed_per_cycle::stdev     2.414576                       # Number of insts commited each cycle
system.cpu.commit.committed_per_cycle::underflows            0      0.00%      0.00% # Number of insts commited each cycle
system.cpu.commit.committed_per_cycle::0      2579786     42.75%     42.75% # Number of insts commited each cycle
system.cpu.commit.committed_per_cycle::1      1014379     16.81%     59.56% # Number of insts commited each cycle
system.cpu.commit.committed_per_cycle::2       823322     13.64%     73.20% # Number of insts commited each cycle
system.cpu.commit.committed_per_cycle::3       332629      5.51%     78.71% # Number of insts commited each cycle
system.cpu.commit.committed_per_cycle::4       428349      7.10%     85.81% # Number of insts commited each cycle
system.cpu.commit.committed_per_cycle::5       202160      3.35%     89.16% # Number of insts commited each cycle
system.cpu.commit.committed_per_cycle::6       144950      2.40%     91.56% # Number of insts commited each cycle
system.cpu.commit.committed_per_cycle::7        51007      0.85%     92.41% # Number of insts commited each cycle
system.cpu.commit.committed_per_cycle::8       458193      7.59%    100.00% # Number of insts commited each cycle
system.cpu.commit.committed_per_cycle::overflows            0      0.00%    100.00% # Number of insts commited each cycle
system.cpu.commit.committed_per_cycle::min_value            0                       # Number of insts commited each cycle
system.cpu.commit.committed_per_cycle::max_value            8                       # Number of insts commited each cycle
system.cpu.commit.committed_per_cycle::total      6034775                       # Number of insts commited each cycle
system.cpu.commit.fp_insts                          0                       # Number of committed floating point instructions.
system.cpu.commit.function_calls               374505                       # Number of function calls committed.
system.cpu.commit.int_insts                   9770223                       # Number of committed integer instructions.
system.cpu.commit.loads                       1155697                       # Number of loads committed
system.cpu.commit.membars                         532                       # Number of memory barriers committed
system.cpu.commit.op_class_0::No_OpClass           12      0.00%      0.00% # Class of committed instruction
system.cpu.commit.op_class_0::IntAlu          9136842     81.03%     81.03% # Class of committed instruction
system.cpu.commit.op_class_0::IntMult           40054      0.36%     81.39% # Class of committed instruction
system.cpu.commit.op_class_0::IntDiv               22      0.00%     81.39% # Class of committed instruction
system.cpu.commit.op_class_0::FloatAdd              0      0.00%     81.39% # Class of committed instruction
system.cpu.commit.op_class_0::FloatCmp              0      0.00%     81.39% # Class of committed instruction
system.cpu.commit.op_class_0::FloatCvt              0      0.00%     81.39% # Class of committed instruction
system.cpu.commit.op_class_0::FloatMult             0      0.00%     81.39% # Class of committed instruction
system.cpu.commit.op_class_0::FloatMultAcc            0      0.00%     81.39% # Class of committed instruction
system.cpu.commit.op_class_0::FloatDiv              0      0.00%     81.39% # Class of committed instruction
system.cpu.commit.op_class_0::FloatMisc             1      0.00%     81.39% # Class of committed instruction
system.cpu.commit.op_class_0::FloatSqrt             0      0.00%     81.39% # Class of committed instruction
system.cpu.commit.op_class_0::SimdAdd              38      0.00%     81.39% # Class of committed instruction
system.cpu.commit.op_class_0::SimdAddAcc            0      0.00%     81.39% # Class of committed instruction
system.cpu.commit.op_class_0::SimdAlu              47      0.00%     81.39% # Class of committed instruction
system.cpu.commit.op_class_0::SimdCmp              49      0.00%     81.39% # Class of committed instruction
system.cpu.commit.op_class_0::SimdCvt               0      0.00%     81.39% # Class of committed instruction
system.cpu.commit.op_class_0::SimdMisc             47      0.00%     81.39% # Class of committed instruction
system.cpu.commit.op_class_0::SimdMult              0      0.00%     81.39% # Class of committed instruction
system.cpu.commit.op_class_0::SimdMultAcc            0      0.00%     81.39% # Class of committed instruction
system.cpu.commit.op_class_0::SimdShift             0      0.00%     81.39% # Class of committed instruction
system.cpu.commit.op_class_0::SimdShiftAcc            0      0.00%     81.39% # Class of committed instruction
system.cpu.commit.op_class_0::SimdDiv               0      0.00%     81.39% # Class of committed instruction
system.cpu.commit.op_class_0::SimdSqrt              0      0.00%     81.39% # Class of committed instruction
system.cpu.commit.op_class_0::SimdFloatAdd            0      0.00%     81.39% # Class of committed instruction
system.cpu.commit.op_class_0::SimdFloatAlu            0      0.00%     81.39% # Class of committed instruction
system.cpu.commit.op_class_0::SimdFloatCmp            0      0.00%     81.39% # Class of committed instruction
system.cpu.commit.op_class_0::SimdFloatCvt            0      0.00%     81.39% # Class of committed instruction
system.cpu.commit.op_class_0::SimdFloatDiv            0      0.00%     81.39% # Class of committed instruction
system.cpu.commit.op_class_0::SimdFloatMisc            0      0.00%     81.39% # Class of committed instruction
system.cpu.commit.op_class_0::SimdFloatMult            0      0.00%     81.39% # Class of committed instruction
system.cpu.commit.op_class_0::SimdFloatMultAcc            0      0.00%     81.39% # Class of committed instruction
system.cpu.commit.op_class_0::SimdFloatSqrt            0      0.00%     81.39% # Class of committed instruction
system.cpu.commit.op_class_0::SimdReduceAdd            0      0.00%     81.39% # Class of committed instruction
system.cpu.commit.op_class_0::SimdReduceAlu            0      0.00%     81.39% # Class of committed instruction
system.cpu.commit.op_class_0::SimdReduceCmp            0      0.00%     81.39% # Class of committed instruction
system.cpu.commit.op_class_0::SimdFloatReduceAdd            0      0.00%     81.39% # Class of committed instruction
system.cpu.commit.op_class_0::SimdFloatReduceCmp            0      0.00%     81.39% # Class of committed instruction
system.cpu.commit.op_class_0::SimdAes               0      0.00%     81.39% # Class of committed instruction
system.cpu.commit.op_class_0::SimdAesMix            0      0.00%     81.39% # Class of committed instruction
system.cpu.commit.op_class_0::SimdSha1Hash            0      0.00%     81.39% # Class of committed instruction
system.cpu.commit.op_class_0::SimdSha1Hash2            0      0.00%     81.39% # Class of committed instruction
system.cpu.commit.op_class_0::SimdSha256Hash            0      0.00%     81.39% # Class of committed instruction
system.cpu.commit.op_class_0::SimdSha256Hash2            0      0.00%     81.39% # Class of committed instruction
system.cpu.commit.op_class_0::SimdShaSigma2            0      0.00%     81.39% # Class of committed instruction
system.cpu.commit.op_class_0::SimdShaSigma3            0      0.00%     81.39% # Class of committed instruction
system.cpu.commit.op_class_0::SimdPredAlu            0      0.00%     81.39% # Class of committed instruction
system.cpu.commit.op_class_0::MemRead         1155697     10.25%     91.64% # Class of committed instruction
system.cpu.commit.op_class_0::MemWrite         942590      8.36%    100.00% # Class of committed instruction
system.cpu.commit.op_class_0::FloatMemRead            0      0.00%    100.00% # Class of committed instruction
system.cpu.commit.op_class_0::FloatMemWrite            0      0.00%    100.00% # Class of committed instruction
system.cpu.commit.op_class_0::IprAccess             0      0.00%    100.00% # Class of committed instruction
system.cpu.commit.op_class_0::InstPrefetch            0      0.00%    100.00% # Class of committed instruction
system.cpu.commit.op_class_0::total          11275399                       # Class of committed instruction
system.cpu.commit.refs                        2098287                       # Number of memory references committed
system.cpu.commit.swp_count                         0                       # Number of s/w prefetches committed
system.cpu.commit.vec_insts                       699                       # Number of committed Vector instructions.
system.cpu.committedInsts                    10000000                       # Number of Instructions Simulated
system.cpu.committedOps                      11272041                       # Number of Ops (including micro ops) Simulated
system.cpu.cpi                               0.622743                       # CPI: Cycles Per Instruction
system.cpu.cpi_total                         0.622743                       # CPI: Total CPI of All Threads
system.cpu.decode.BlockedCycles                698073                       # Number of cycles decode is blocked
system.cpu.decode.BranchMispred                  1703                       # Number of times decode detected a branch misprediction
system.cpu.decode.BranchResolved              1238242                       # Number of times decode resolved a branch
system.cpu.decode.DecodedInsts               12008312                       # Number of instructions handled by decode
system.cpu.decode.IdleCycles                  2434553                       # Number of cycles decode is idle
system.cpu.decode.RunCycles                   2913054                       # Number of cycles decode is running
system.cpu.decode.SquashCycles                  17993                       # Number of cycles decode is squashing
system.cpu.decode.SquashedInsts                  7412                       # Number of squashed instructions handled by decode
system.cpu.decode.UnblockCycles                 53887                       # Number of cycles decode is unblocking
system.cpu.dtb.accesses                             0                       # DTB accesses
system.cpu.dtb.align_faults                         0                       # Number of TLB faults due to alignment restrictions
system.cpu.dtb.domain_faults                        0                       # Number of TLB faults due to domain restrictions
system.cpu.dtb.flush_entries                        0                       # Number of entries that have been flushed from TLB
system.cpu.dtb.flush_tlb                            0                       # Number of times complete TLB was flushed
system.cpu.dtb.flush_tlb_asid                       0                       # Number of times TLB was flushed by ASID
system.cpu.dtb.flush_tlb_mva                        0                       # Number of times TLB was flushed by MVA
system.cpu.dtb.flush_tlb_mva_asid                   0                       # Number of times TLB was flushed by MVA & ASID
system.cpu.dtb.hits                                 0                       # DTB hits
system.cpu.dtb.inst_accesses                        0                       # ITB inst accesses
system.cpu.dtb.inst_hits                            0                       # ITB inst hits
system.cpu.dtb.inst_misses                          0                       # ITB inst misses
system.cpu.dtb.misses                               0                       # DTB misses
system.cpu.dtb.perms_faults                         0                       # Number of TLB faults due to permissions restrictions
system.cpu.dtb.prefetch_faults                      0                       # Number of TLB faults due to prefetch
system.cpu.dtb.read_accesses                        0                       # DTB read accesses
system.cpu.dtb.read_hits                            0                       # DTB read hits
system.cpu.dtb.read_misses                          0                       # DTB read misses
system.cpu.dtb.stage2_mmu.stage2_tlb.accesses            0                       # DTB accesses
system.cpu.dtb.stage2_mmu.stage2_tlb.align_faults            0                       # Number of TLB faults due to alignment restrictions
system.cpu.dtb.stage2_mmu.stage2_tlb.domain_faults            0                       # Number of TLB faults due to domain restrictions
system.cpu.dtb.stage2_mmu.stage2_tlb.flush_entries            0                       # Number of entries that have been flushed from TLB
system.cpu.dtb.stage2_mmu.stage2_tlb.flush_tlb            0                       # Number of times complete TLB was flushed
system.cpu.dtb.stage2_mmu.stage2_tlb.flush_tlb_asid            0                       # Number of times TLB was flushed by ASID
system.cpu.dtb.stage2_mmu.stage2_tlb.flush_tlb_mva            0                       # Number of times TLB was flushed by MVA
system.cpu.dtb.stage2_mmu.stage2_tlb.flush_tlb_mva_asid            0                       # Number of times TLB was flushed by MVA & ASID
system.cpu.dtb.stage2_mmu.stage2_tlb.hits            0                       # DTB hits
system.cpu.dtb.stage2_mmu.stage2_tlb.inst_accesses            0                       # ITB inst accesses
system.cpu.dtb.stage2_mmu.stage2_tlb.inst_hits            0                       # ITB inst hits
system.cpu.dtb.stage2_mmu.stage2_tlb.inst_misses            0                       # ITB inst misses
system.cpu.dtb.stage2_mmu.stage2_tlb.misses            0                       # DTB misses
system.cpu.dtb.stage2_mmu.stage2_tlb.perms_faults            0                       # Number of TLB faults due to permissions restrictions
system.cpu.dtb.stage2_mmu.stage2_tlb.prefetch_faults            0                       # Number of TLB faults due to prefetch
system.cpu.dtb.stage2_mmu.stage2_tlb.read_accesses            0                       # DTB read accesses
system.cpu.dtb.stage2_mmu.stage2_tlb.read_hits            0                       # DTB read hits
system.cpu.dtb.stage2_mmu.stage2_tlb.read_misses            0                       # DTB read misses
system.cpu.dtb.stage2_mmu.stage2_tlb.walker.walkRequestOrigin_Requested::Data            0                       # Table walker requests started/completed, data/inst
system.cpu.dtb.stage2_mmu.stage2_tlb.walker.walkRequestOrigin_Requested::Inst            0                       # Table walker requests started/completed, data/inst
system.cpu.dtb.stage2_mmu.stage2_tlb.walker.walkRequestOrigin_Requested::total            0                       # Table walker requests started/completed, data/inst
system.cpu.dtb.stage2_mmu.stage2_tlb.walker.walkRequestOrigin_Completed::Data            0                       # Table walker requests started/completed, data/inst
system.cpu.dtb.stage2_mmu.stage2_tlb.walker.walkRequestOrigin_Completed::Inst            0                       # Table walker requests started/completed, data/inst
system.cpu.dtb.stage2_mmu.stage2_tlb.walker.walkRequestOrigin_Completed::total            0                       # Table walker requests started/completed, data/inst
system.cpu.dtb.stage2_mmu.stage2_tlb.walker.walkRequestOrigin::total            0                       # Table walker requests started/completed, data/inst
system.cpu.dtb.stage2_mmu.stage2_tlb.walker.walks            0                       # Table walker walks requested
system.cpu.dtb.stage2_mmu.stage2_tlb.write_accesses            0                       # DTB write accesses
system.cpu.dtb.stage2_mmu.stage2_tlb.write_hits            0                       # DTB write hits
system.cpu.dtb.stage2_mmu.stage2_tlb.write_misses            0                       # DTB write misses
system.cpu.dtb.walker.walkRequestOrigin_Requested::Data            0                       # Table walker requests started/completed, data/inst
system.cpu.dtb.walker.walkRequestOrigin_Requested::Inst            0                       # Table walker requests started/completed, data/inst
system.cpu.dtb.walker.walkRequestOrigin_Requested::total            0                       # Table walker requests started/completed, data/inst
system.cpu.dtb.walker.walkRequestOrigin_Completed::Data            0                       # Table walker requests started/completed, data/inst
system.cpu.dtb.walker.walkRequestOrigin_Completed::Inst            0                       # Table walker requests started/completed, data/inst
system.cpu.dtb.walker.walkRequestOrigin_Completed::total            0                       # Table walker requests started/completed, data/inst
system.cpu.dtb.walker.walkRequestOrigin::total            0                       # Table walker requests started/completed, data/inst
system.cpu.dtb.walker.walks                         0                       # Table walker walks requested
system.cpu.dtb.write_accesses                       0                       # DTB write accesses
system.cpu.dtb.write_hits                           0                       # DTB write hits
system.cpu.dtb.write_misses                         0                       # DTB write misses
system.cpu.fetch.Branches                     2917805                       # Number of branches that fetch encountered
system.cpu.fetch.CacheLines                   2496901                       # Number of cache lines fetched
system.cpu.fetch.Cycles                       3544753                       # Number of cycles fetch has run and was not squashing or blocked
system.cpu.fetch.IcacheSquashes                  5796                       # Number of outstanding Icache misses that were squashed
system.cpu.fetch.IcacheWaitRetryStallCycles           23                       # Number of stall cycles due to full MSHR
system.cpu.fetch.Insts                       10694751                       # Number of instructions fetch has processed
system.cpu.fetch.MiscStallCycles                  114                       # Number of cycles fetch has spent waiting on interrupts, or bad addresses, or out of MSHRs
system.cpu.fetch.SquashCycles                   39350                       # Number of cycles fetch has spent squashing
system.cpu.fetch.branchRate                  0.468541                       # Number of branch fetches per cycle
system.cpu.fetch.icacheStallCycles            2552995                       # Number of cycles fetch is stalled on an Icache miss
system.cpu.fetch.predictedBranches            1731850                       # Number of branches that fetch has predicted taken
system.cpu.fetch.rate                        1.717362                       # Number of inst fetches per cycle
system.cpu.fetch.rateDist::samples            6117560                       # Number of instructions fetched each cycle (Total)
system.cpu.fetch.rateDist::mean              1.976147                       # Number of instructions fetched each cycle (Total)
system.cpu.fetch.rateDist::stdev             2.613926                       # Number of instructions fetched each cycle (Total)
system.cpu.fetch.rateDist::underflows               0      0.00%      0.00% # Number of instructions fetched each cycle (Total)
system.cpu.fetch.rateDist::0                  3070496     50.19%     50.19% # Number of instructions fetched each cycle (Total)
system.cpu.fetch.rateDist::1                   356862      5.83%     56.02% # Number of instructions fetched each cycle (Total)
system.cpu.fetch.rateDist::2                   843149     13.78%     69.81% # Number of instructions fetched each cycle (Total)
system.cpu.fetch.rateDist::3                   479447      7.84%     77.64% # Number of instructions fetched each cycle (Total)
system.cpu.fetch.rateDist::4                   326426      5.34%     82.98% # Number of instructions fetched each cycle (Total)
system.cpu.fetch.rateDist::5                   132989      2.17%     85.15% # Number of instructions fetched each cycle (Total)
system.cpu.fetch.rateDist::6                   199934      3.27%     88.42% # Number of instructions fetched each cycle (Total)
system.cpu.fetch.rateDist::7                   228610      3.74%     92.16% # Number of instructions fetched each cycle (Total)
system.cpu.fetch.rateDist::8                   479647      7.84%    100.00% # Number of instructions fetched each cycle (Total)
system.cpu.fetch.rateDist::overflows                0      0.00%    100.00% # Number of instructions fetched each cycle (Total)
system.cpu.fetch.rateDist::min_value                0                       # Number of instructions fetched each cycle (Total)
system.cpu.fetch.rateDist::max_value                8                       # Number of instructions fetched each cycle (Total)
system.cpu.fetch.rateDist::total              6117560                       # Number of instructions fetched each cycle (Total)
system.cpu.idleCycles                          109870                       # Total number of cycles that the CPU has spent unscheduled due to idling
system.cpu.iew.branchMispredicts                20015                       # Number of branch mispredicts detected at execute
system.cpu.iew.exec_branches                  2843454                       # Number of branches executed
system.cpu.iew.exec_nop                          4054                       # number of nop insts executed
system.cpu.iew.exec_rate                     1.905738                       # Inst execution rate
system.cpu.iew.exec_refs                      2310770                       # number of memory reference insts executed
system.cpu.iew.exec_stores                    1012548                       # Number of stores executed
system.cpu.iew.exec_swp                             0                       # number of swp insts executed
system.cpu.iew.iewBlockCycles                  301954                       # Number of cycles IEW is blocking
system.cpu.iew.iewDispLoadInsts               1218088                       # Number of dispatched load instructions
system.cpu.iew.iewDispNonSpecInsts                591                       # Number of dispatched non-speculative instructions
system.cpu.iew.iewDispSquashedInsts               622                       # Number of squashed instructions skipped by dispatch
system.cpu.iew.iewDispStoreInsts              1029158                       # Number of dispatched store instructions
system.cpu.iew.iewDispatchedInsts            11876421                       # Number of instructions dispatched to IQ
system.cpu.iew.iewExecLoadInsts               1298222                       # Number of load instructions executed
system.cpu.iew.iewExecSquashedInsts             24518                       # Number of squashed instructions skipped in execute
system.cpu.iew.iewExecutedInsts              11867853                       # Number of executed instructions
system.cpu.iew.iewIQFullEvents                   1419                       # Number of times the IQ has become full, causing a stall
system.cpu.iew.iewIdleCycles                        0                       # Number of cycles IEW is idle
system.cpu.iew.iewLSQFullEvents                  1258                       # Number of times the LSQ has become full, causing a stall
system.cpu.iew.iewSquashCycles                  17993                       # Number of cycles IEW is squashing
system.cpu.iew.iewUnblockCycles                  5625                       # Number of cycles IEW is unblocking
system.cpu.iew.lsq.thread0.blockedLoads             0                       # Number of blocked loads due to partial load-store forwarding
system.cpu.iew.lsq.thread0.cacheBlocked           227                       # Number of times an access to memory failed due to the cache being blocked
system.cpu.iew.lsq.thread0.forwLoads            10083                       # Number of loads that had data forwarded from stores
system.cpu.iew.lsq.thread0.ignoredResponses            8                       # Number of memory responses ignored because the instruction is squashed
system.cpu.iew.lsq.thread0.invAddrLoads             0                       # Number of loads ignored due to an invalid address
system.cpu.iew.lsq.thread0.invAddrSwpfs             0                       # Number of software prefetches ignored due to an invalid address
system.cpu.iew.lsq.thread0.memOrderViolation           52                       # Number of memory ordering violations
system.cpu.iew.lsq.thread0.rescheduledLoads        86501                       # Number of loads that were rescheduled
system.cpu.iew.lsq.thread0.squashedLoads        62390                       # Number of loads squashed
system.cpu.iew.lsq.thread0.squashedStores        86568                       # Number of stores squashed
system.cpu.iew.memOrderViolationEvents             52                       # Number of memory order violations
system.cpu.iew.predictedNotTakenIncorrect        14228                       # Number of branches that were predicted not taken incorrectly
system.cpu.iew.predictedTakenIncorrect           5787                       # Number of branches that were predicted taken incorrectly
system.cpu.iew.wb_consumers                  10946987                       # num instructions consuming a value
system.cpu.iew.wb_count                      11766565                       # cumulative count of insts written-back
system.cpu.iew.wb_fanout                     0.504306                       # average fanout of values written-back
system.cpu.iew.wb_producers                   5520629                       # num instructions producing a value
system.cpu.iew.wb_rate                       1.889474                       # insts written-back per cycle
system.cpu.iew.wb_sent                       11772405                       # cumulative count of insts sent to commit
system.cpu.int_regfile_reads                 13410173                       # number of integer regfile reads
system.cpu.int_regfile_writes                 8701593                       # number of integer regfile writes
system.cpu.ipc                               1.605799                       # IPC: Instructions Per Cycle
system.cpu.ipc_total                         1.605799                       # IPC: Total IPC of All Threads
system.cpu.iq.FU_type_0::No_OpClass                15      0.00%      0.00% # Type of FU issued
system.cpu.iq.FU_type_0::IntAlu               9536392     80.19%     80.19% # Type of FU issued
system.cpu.iq.FU_type_0::IntMult                40060      0.34%     80.53% # Type of FU issued
system.cpu.iq.FU_type_0::IntDiv                    26      0.00%     80.53% # Type of FU issued
system.cpu.iq.FU_type_0::FloatAdd                   0      0.00%     80.53% # Type of FU issued
system.cpu.iq.FU_type_0::FloatCmp                   0      0.00%     80.53% # Type of FU issued
system.cpu.iq.FU_type_0::FloatCvt                   0      0.00%     80.53% # Type of FU issued
system.cpu.iq.FU_type_0::FloatMult                  0      0.00%     80.53% # Type of FU issued
system.cpu.iq.FU_type_0::FloatMultAcc               0      0.00%     80.53% # Type of FU issued
system.cpu.iq.FU_type_0::FloatDiv                   0      0.00%     80.53% # Type of FU issued
system.cpu.iq.FU_type_0::FloatMisc                  1      0.00%     80.53% # Type of FU issued
system.cpu.iq.FU_type_0::FloatSqrt                  0      0.00%     80.53% # Type of FU issued
system.cpu.iq.FU_type_0::SimdAdd                   50      0.00%     80.53% # Type of FU issued
system.cpu.iq.FU_type_0::SimdAddAcc                 0      0.00%     80.53% # Type of FU issued
system.cpu.iq.FU_type_0::SimdAlu                   61      0.00%     80.53% # Type of FU issued
system.cpu.iq.FU_type_0::SimdCmp                   61      0.00%     80.53% # Type of FU issued
system.cpu.iq.FU_type_0::SimdCvt                    0      0.00%     80.53% # Type of FU issued
system.cpu.iq.FU_type_0::SimdMisc                  54      0.00%     80.53% # Type of FU issued
system.cpu.iq.FU_type_0::SimdMult                   0      0.00%     80.53% # Type of FU issued
system.cpu.iq.FU_type_0::SimdMultAcc                0      0.00%     80.53% # Type of FU issued
system.cpu.iq.FU_type_0::SimdShift                  0      0.00%     80.53% # Type of FU issued
system.cpu.iq.FU_type_0::SimdShiftAcc               0      0.00%     80.53% # Type of FU issued
system.cpu.iq.FU_type_0::SimdDiv                    0      0.00%     80.53% # Type of FU issued
system.cpu.iq.FU_type_0::SimdSqrt                   0      0.00%     80.53% # Type of FU issued
system.cpu.iq.FU_type_0::SimdFloatAdd               0      0.00%     80.53% # Type of FU issued
system.cpu.iq.FU_type_0::SimdFloatAlu               0      0.00%     80.53% # Type of FU issued
system.cpu.iq.FU_type_0::SimdFloatCmp               0      0.00%     80.53% # Type of FU issued
system.cpu.iq.FU_type_0::SimdFloatCvt               0      0.00%     80.53% # Type of FU issued
system.cpu.iq.FU_type_0::SimdFloatDiv               0      0.00%     80.53% # Type of FU issued
system.cpu.iq.FU_type_0::SimdFloatMisc              0      0.00%     80.53% # Type of FU issued
system.cpu.iq.FU_type_0::SimdFloatMult              0      0.00%     80.53% # Type of FU issued
system.cpu.iq.FU_type_0::SimdFloatMultAcc            0      0.00%     80.53% # Type of FU issued
system.cpu.iq.FU_type_0::SimdFloatSqrt              0      0.00%     80.53% # Type of FU issued
system.cpu.iq.FU_type_0::SimdReduceAdd              0      0.00%     80.53% # Type of FU issued
system.cpu.iq.FU_type_0::SimdReduceAlu              0      0.00%     80.53% # Type of FU issued
system.cpu.iq.FU_type_0::SimdReduceCmp              0      0.00%     80.53% # Type of FU issued
system.cpu.iq.FU_type_0::SimdFloatReduceAdd            0      0.00%     80.53% # Type of FU issued
system.cpu.iq.FU_type_0::SimdFloatReduceCmp            0      0.00%     80.53% # Type of FU issued
system.cpu.iq.FU_type_0::SimdAes                    0      0.00%     80.53% # Type of FU issued
system.cpu.iq.FU_type_0::SimdAesMix                 0      0.00%     80.53% # Type of FU issued
system.cpu.iq.FU_type_0::SimdSha1Hash               0      0.00%     80.53% # Type of FU issued
system.cpu.iq.FU_type_0::SimdSha1Hash2              0      0.00%     80.53% # Type of FU issued
system.cpu.iq.FU_type_0::SimdSha256Hash             0      0.00%     80.53% # Type of FU issued
system.cpu.iq.FU_type_0::SimdSha256Hash2            0      0.00%     80.53% # Type of FU issued
system.cpu.iq.FU_type_0::SimdShaSigma2              0      0.00%     80.53% # Type of FU issued
system.cpu.iq.FU_type_0::SimdShaSigma3              0      0.00%     80.53% # Type of FU issued
system.cpu.iq.FU_type_0::SimdPredAlu                0      0.00%     80.53% # Type of FU issued
system.cpu.iq.FU_type_0::MemRead              1299860     10.93%     91.46% # Type of FU issued
system.cpu.iq.FU_type_0::MemWrite             1015794      8.54%    100.00% # Type of FU issued
system.cpu.iq.FU_type_0::FloatMemRead               0      0.00%    100.00% # Type of FU issued
system.cpu.iq.FU_type_0::FloatMemWrite              0      0.00%    100.00% # Type of FU issued
system.cpu.iq.FU_type_0::IprAccess                  0      0.00%    100.00% # Type of FU issued
system.cpu.iq.FU_type_0::InstPrefetch               0      0.00%    100.00% # Type of FU issued
system.cpu.iq.FU_type_0::total               11892374                       # Type of FU issued
system.cpu.iq.fp_alu_accesses                       0                       # Number of floating point alu accesses
system.cpu.iq.fp_inst_queue_reads                   0                       # Number of floating instruction queue reads
system.cpu.iq.fp_inst_queue_wakeup_accesses            0                       # Number of floating instruction queue wakeup accesses
system.cpu.iq.fp_inst_queue_writes                  0                       # Number of floating instruction queue writes
system.cpu.iq.fu_busy_cnt                       41029                       # FU busy when requested
system.cpu.iq.fu_busy_rate                   0.003450                       # FU busy rate (busy events/executed inst)
system.cpu.iq.fu_full::No_OpClass                   0      0.00%      0.00% # attempts to use FU when none available
system.cpu.iq.fu_full::IntAlu                   30188     73.58%     73.58% # attempts to use FU when none available
system.cpu.iq.fu_full::IntMult                      0      0.00%     73.58% # attempts to use FU when none available
system.cpu.iq.fu_full::IntDiv                       0      0.00%     73.58% # attempts to use FU when none available
system.cpu.iq.fu_full::FloatAdd                     0      0.00%     73.58% # attempts to use FU when none available
system.cpu.iq.fu_full::FloatCmp                     0      0.00%     73.58% # attempts to use FU when none available
system.cpu.iq.fu_full::FloatCvt                     0      0.00%     73.58% # attempts to use FU when none available
system.cpu.iq.fu_full::FloatMult                    0      0.00%     73.58% # attempts to use FU when none available
system.cpu.iq.fu_full::FloatMultAcc                 0      0.00%     73.58% # attempts to use FU when none available
system.cpu.iq.fu_full::FloatDiv                     0      0.00%     73.58% # attempts to use FU when none available
system.cpu.iq.fu_full::FloatMisc                    0      0.00%     73.58% # attempts to use FU when none available
system.cpu.iq.fu_full::FloatSqrt                    0      0.00%     73.58% # attempts to use FU when none available
system.cpu.iq.fu_full::SimdAdd                      0      0.00%     73.58% # attempts to use FU when none available
system.cpu.iq.fu_full::SimdAddAcc                   0      0.00%     73.58% # attempts to use FU when none available
system.cpu.iq.fu_full::SimdAlu                      2      0.00%     73.58% # attempts to use FU when none available
system.cpu.iq.fu_full::SimdCmp                      4      0.01%     73.59% # attempts to use FU when none available
system.cpu.iq.fu_full::SimdCvt                      0      0.00%     73.59% # attempts to use FU when none available
system.cpu.iq.fu_full::SimdMisc                     0      0.00%     73.59% # attempts to use FU when none available
system.cpu.iq.fu_full::SimdMult                     0      0.00%     73.59% # attempts to use FU when none available
system.cpu.iq.fu_full::SimdMultAcc                  0      0.00%     73.59% # attempts to use FU when none available
system.cpu.iq.fu_full::SimdShift                    0      0.00%     73.59% # attempts to use FU when none available
system.cpu.iq.fu_full::SimdShiftAcc                 0      0.00%     73.59% # attempts to use FU when none available
system.cpu.iq.fu_full::SimdDiv                      0      0.00%     73.59% # attempts to use FU when none available
system.cpu.iq.fu_full::SimdSqrt                     0      0.00%     73.59% # attempts to use FU when none available
system.cpu.iq.fu_full::SimdFloatAdd                 0      0.00%     73.59% # attempts to use FU when none available
system.cpu.iq.fu_full::SimdFloatAlu                 0      0.00%     73.59% # attempts to use FU when none available
system.cpu.iq.fu_full::SimdFloatCmp                 0      0.00%     73.59% # attempts to use FU when none available
system.cpu.iq.fu_full::SimdFloatCvt                 0      0.00%     73.59% # attempts to use FU when none available
system.cpu.iq.fu_full::SimdFloatDiv                 0      0.00%     73.59% # attempts to use FU when none available
system.cpu.iq.fu_full::SimdFloatMisc                0      0.00%     73.59% # attempts to use FU when none available
system.cpu.iq.fu_full::SimdFloatMult                0      0.00%     73.59% # attempts to use FU when none available
system.cpu.iq.fu_full::SimdFloatMultAcc             0      0.00%     73.59% # attempts to use FU when none available
system.cpu.iq.fu_full::SimdFloatSqrt                0      0.00%     73.59% # attempts to use FU when none available
system.cpu.iq.fu_full::SimdReduceAdd                0      0.00%     73.59% # attempts to use FU when none available
system.cpu.iq.fu_full::SimdReduceAlu                0      0.00%     73.59% # attempts to use FU when none available
system.cpu.iq.fu_full::SimdReduceCmp                0      0.00%     73.59% # attempts to use FU when none available
system.cpu.iq.fu_full::SimdFloatReduceAdd            0      0.00%     73.59% # attempts to use FU when none available
system.cpu.iq.fu_full::SimdFloatReduceCmp            0      0.00%     73.59% # attempts to use FU when none available
system.cpu.iq.fu_full::SimdAes                      0      0.00%     73.59% # attempts to use FU when none available
system.cpu.iq.fu_full::SimdAesMix                   0      0.00%     73.59% # attempts to use FU when none available
system.cpu.iq.fu_full::SimdSha1Hash                 0      0.00%     73.59% # attempts to use FU when none available
system.cpu.iq.fu_full::SimdSha1Hash2                0      0.00%     73.59% # attempts to use FU when none available
system.cpu.iq.fu_full::SimdSha256Hash               0      0.00%     73.59% # attempts to use FU when none available
system.cpu.iq.fu_full::SimdSha256Hash2              0      0.00%     73.59% # attempts to use FU when none available
system.cpu.iq.fu_full::SimdShaSigma2                0      0.00%     73.59% # attempts to use FU when none available
system.cpu.iq.fu_full::SimdShaSigma3                0      0.00%     73.59% # attempts to use FU when none available
system.cpu.iq.fu_full::SimdPredAlu                  0      0.00%     73.59% # attempts to use FU when none available
system.cpu.iq.fu_full::MemRead                   1587      3.87%     77.46% # attempts to use FU when none available
system.cpu.iq.fu_full::MemWrite                  9248     22.54%    100.00% # attempts to use FU when none available
system.cpu.iq.fu_full::FloatMemRead                 0      0.00%    100.00% # attempts to use FU when none available
system.cpu.iq.fu_full::FloatMemWrite                0      0.00%    100.00% # attempts to use FU when none available
system.cpu.iq.fu_full::IprAccess                    0      0.00%    100.00% # attempts to use FU when none available
system.cpu.iq.fu_full::InstPrefetch                 0      0.00%    100.00% # attempts to use FU when none available
system.cpu.iq.int_alu_accesses               11932434                       # Number of integer alu accesses
system.cpu.iq.int_inst_queue_reads           29941792                       # Number of integer instruction queue reads
system.cpu.iq.int_inst_queue_wakeup_accesses     11765747                       # Number of integer instruction queue wakeup accesses
system.cpu.iq.int_inst_queue_writes          12471294                       # Number of integer instruction queue writes
system.cpu.iq.iqInstsAdded                   11871776                       # Number of instructions added to the IQ (excludes non-spec)
system.cpu.iq.iqInstsIssued                  11892374                       # Number of instructions issued
system.cpu.iq.iqNonSpecInstsAdded                 591                       # Number of non-speculative instructions added to the IQ
system.cpu.iq.iqSquashedInstsExamined          600314                       # Number of squashed instructions iterated over during squash; mainly for profiling
system.cpu.iq.iqSquashedInstsIssued               413                       # Number of squashed instructions issued
system.cpu.iq.iqSquashedNonSpecRemoved             51                       # Number of squashed non-spec instructions that were removed
system.cpu.iq.iqSquashedOperandsExamined       147543                       # Number of squashed operands that are examined and possibly removed from graph
system.cpu.iq.issued_per_cycle::samples       6117560                       # Number of insts issued each cycle
system.cpu.iq.issued_per_cycle::mean         1.943973                       # Number of insts issued each cycle
system.cpu.iq.issued_per_cycle::stdev        1.817237                       # Number of insts issued each cycle
system.cpu.iq.issued_per_cycle::underflows            0      0.00%      0.00% # Number of insts issued each cycle
system.cpu.iq.issued_per_cycle::0             1488995     24.34%     24.34% # Number of insts issued each cycle
system.cpu.iq.issued_per_cycle::1             1472203     24.07%     48.40% # Number of insts issued each cycle
system.cpu.iq.issued_per_cycle::2             1317312     21.53%     69.94% # Number of insts issued each cycle
system.cpu.iq.issued_per_cycle::3              803510     13.13%     83.07% # Number of insts issued each cycle
system.cpu.iq.issued_per_cycle::4              355672      5.81%     88.89% # Number of insts issued each cycle
system.cpu.iq.issued_per_cycle::5              348122      5.69%     94.58% # Number of insts issued each cycle
system.cpu.iq.issued_per_cycle::6              177964      2.91%     97.49% # Number of insts issued each cycle
system.cpu.iq.issued_per_cycle::7               86321      1.41%     98.90% # Number of insts issued each cycle
system.cpu.iq.issued_per_cycle::8               67461      1.10%    100.00% # Number of insts issued each cycle
system.cpu.iq.issued_per_cycle::overflows            0      0.00%    100.00% # Number of insts issued each cycle
system.cpu.iq.issued_per_cycle::min_value            0                       # Number of insts issued each cycle
system.cpu.iq.issued_per_cycle::max_value            8                       # Number of insts issued each cycle
system.cpu.iq.issued_per_cycle::total         6117560                       # Number of insts issued each cycle
system.cpu.iq.rate                           1.909676                       # Inst issue rate
system.cpu.iq.vec_alu_accesses                    954                       # Number of vector alu accesses
system.cpu.iq.vec_inst_queue_reads               1955                       # Number of vector instruction queue reads
system.cpu.iq.vec_inst_queue_wakeup_accesses          818                       # Number of vector instruction queue wakeup accesses
system.cpu.iq.vec_inst_queue_writes              1439                       # Number of vector instruction queue writes
system.cpu.itb.accesses                             0                       # DTB accesses
system.cpu.itb.align_faults                         0                       # Number of TLB faults due to alignment restrictions
system.cpu.itb.domain_faults                        0                       # Number of TLB faults due to domain restrictions
system.cpu.itb.flush_entries                        0                       # Number of entries that have been flushed from TLB
system.cpu.itb.flush_tlb                            0                       # Number of times complete TLB was flushed
system.cpu.itb.flush_tlb_asid                       0                       # Number of times TLB was flushed by ASID
system.cpu.itb.flush_tlb_mva                        0                       # Number of times TLB was flushed by MVA
system.cpu.itb.flush_tlb_mva_asid                   0                       # Number of times TLB was flushed by MVA & ASID
system.cpu.itb.hits                                 0                       # DTB hits
system.cpu.itb.inst_accesses                        0                       # ITB inst accesses
system.cpu.itb.inst_hits                            0                       # ITB inst hits
system.cpu.itb.inst_misses                          0                       # ITB inst misses
system.cpu.itb.misses                               0                       # DTB misses
system.cpu.itb.perms_faults                         0                       # Number of TLB faults due to permissions restrictions
system.cpu.itb.prefetch_faults                      0                       # Number of TLB faults due to prefetch
system.cpu.itb.read_accesses                        0                       # DTB read accesses
system.cpu.itb.read_hits                            0                       # DTB read hits
system.cpu.itb.read_misses                          0                       # DTB read misses
system.cpu.itb.stage2_mmu.stage2_tlb.accesses            0                       # DTB accesses
system.cpu.itb.stage2_mmu.stage2_tlb.align_faults            0                       # Number of TLB faults due to alignment restrictions
system.cpu.itb.stage2_mmu.stage2_tlb.domain_faults            0                       # Number of TLB faults due to domain restrictions
system.cpu.itb.stage2_mmu.stage2_tlb.flush_entries            0                       # Number of entries that have been flushed from TLB
system.cpu.itb.stage2_mmu.stage2_tlb.flush_tlb            0                       # Number of times complete TLB was flushed
system.cpu.itb.stage2_mmu.stage2_tlb.flush_tlb_asid            0                       # Number of times TLB was flushed by ASID
system.cpu.itb.stage2_mmu.stage2_tlb.flush_tlb_mva            0                       # Number of times TLB was flushed by MVA
system.cpu.itb.stage2_mmu.stage2_tlb.flush_tlb_mva_asid            0                       # Number of times TLB was flushed by MVA & ASID
system.cpu.itb.stage2_mmu.stage2_tlb.hits            0                       # DTB hits
system.cpu.itb.stage2_mmu.stage2_tlb.inst_accesses            0                       # ITB inst accesses
system.cpu.itb.stage2_mmu.stage2_tlb.inst_hits            0                       # ITB inst hits
system.cpu.itb.stage2_mmu.stage2_tlb.inst_misses            0                       # ITB inst misses
system.cpu.itb.stage2_mmu.stage2_tlb.misses            0                       # DTB misses
system.cpu.itb.stage2_mmu.stage2_tlb.perms_faults            0                       # Number of TLB faults due to permissions restrictions
system.cpu.itb.stage2_mmu.stage2_tlb.prefetch_faults            0                       # Number of TLB faults due to prefetch
system.cpu.itb.stage2_mmu.stage2_tlb.read_accesses            0                       # DTB read accesses
system.cpu.itb.stage2_mmu.stage2_tlb.read_hits            0                       # DTB read hits
system.cpu.itb.stage2_mmu.stage2_tlb.read_misses            0                       # DTB read misses
system.cpu.itb.stage2_mmu.stage2_tlb.walker.walkRequestOrigin_Requested::Data            0                       # Table walker requests started/completed, data/inst
system.cpu.itb.stage2_mmu.stage2_tlb.walker.walkRequestOrigin_Requested::Inst            0                       # Table walker requests started/completed, data/inst
system.cpu.itb.stage2_mmu.stage2_tlb.walker.walkRequestOrigin_Requested::total            0                       # Table walker requests started/completed, data/inst
system.cpu.itb.stage2_mmu.stage2_tlb.walker.walkRequestOrigin_Completed::Data            0                       # Table walker requests started/completed, data/inst
system.cpu.itb.stage2_mmu.stage2_tlb.walker.walkRequestOrigin_Completed::Inst            0                       # Table walker requests started/completed, data/inst
system.cpu.itb.stage2_mmu.stage2_tlb.walker.walkRequestOrigin_Completed::total            0                       # Table walker requests started/completed, data/inst
system.cpu.itb.stage2_mmu.stage2_tlb.walker.walkRequestOrigin::total            0                       # Table walker requests started/completed, data/inst
system.cpu.itb.stage2_mmu.stage2_tlb.walker.walks            0                       # Table walker walks requested
system.cpu.itb.stage2_mmu.stage2_tlb.write_accesses            0                       # DTB write accesses
system.cpu.itb.stage2_mmu.stage2_tlb.write_hits            0                       # DTB write hits
system.cpu.itb.stage2_mmu.stage2_tlb.write_misses            0                       # DTB write misses
system.cpu.itb.walker.walkRequestOrigin_Requested::Data            0                       # Table walker requests started/completed, data/inst
system.cpu.itb.walker.walkRequestOrigin_Requested::Inst            0                       # Table walker requests started/completed, data/inst
system.cpu.itb.walker.walkRequestOrigin_Requested::total            0                       # Table walker requests started/completed, data/inst
system.cpu.itb.walker.walkRequestOrigin_Completed::Data            0                       # Table walker requests started/completed, data/inst
system.cpu.itb.walker.walkRequestOrigin_Completed::Inst            0                       # Table walker requests started/completed, data/inst
system.cpu.itb.walker.walkRequestOrigin_Completed::total            0                       # Table walker requests started/completed, data/inst
system.cpu.itb.walker.walkRequestOrigin::total            0                       # Table walker requests started/completed, data/inst
system.cpu.itb.walker.walks                         0                       # Table walker walks requested
system.cpu.itb.write_accesses                       0                       # DTB write accesses
system.cpu.itb.write_hits                           0                       # DTB write hits
system.cpu.itb.write_misses                         0                       # DTB write misses
system.cpu.memDep0.conflictingLoads             28388                       # Number of conflicting loads.
system.cpu.memDep0.conflictingStores            61044                       # Number of conflicting stores.
system.cpu.memDep0.insertedLoads              1218088                       # Number of loads inserted to the mem dependence unit.
system.cpu.memDep0.insertedStores             1029158                       # Number of stores inserted to the mem dependence unit.
system.cpu.misc_regfile_reads                 8232799                       # number of misc regfile reads
system.cpu.misc_regfile_writes                   2121                       # number of misc regfile writes
system.cpu.numCycles                          6227430                       # number of cpu cycles simulated
system.cpu.numWorkItemsCompleted                    0                       # number of work items this cpu completed
system.cpu.numWorkItemsStarted                      0                       # number of work items this cpu started
system.cpu.rename.BlockCycles                  456535                       # Number of cycles rename is blocking
system.cpu.rename.CommittedMaps              12203023                       # Number of HB maps that are committed
system.cpu.rename.IQFullEvents                 118566                       # Number of times rename has blocked due to IQ full
system.cpu.rename.IdleCycles                  2458074                       # Number of cycles rename is idle
system.cpu.rename.LQFullEvents                   3336                       # Number of times rename has blocked due to LQ full
system.cpu.rename.ROBFullEvents                  5161                       # Number of times rename has blocked due to ROB full
system.cpu.rename.RenameLookups              18686457                       # Number of register rename lookups that rename has made
system.cpu.rename.RenamedInsts               11964460                       # Number of instructions processed by rename
system.cpu.rename.RenamedOperands            12859770                       # Number of destination operands rename has renamed
system.cpu.rename.RunCycles                   2935878                       # Number of cycles rename is running
system.cpu.rename.SQFullEvents                  17009                       # Number of times rename has blocked due to SQ full
system.cpu.rename.SquashCycles                  17993                       # Number of cycles rename is squashing
system.cpu.rename.UnblockCycles                155804                       # Number of cycles rename is unblocking
system.cpu.rename.UndoneMaps                   656726                       # Number of HB maps that are undone due to squashing
system.cpu.rename.int_rename_lookups         13543228                       # Number of integer rename lookups
system.cpu.rename.serializeStallCycles          93276                       # count of cycles rename stalled for serializing inst
system.cpu.rename.serializingInsts               2152                       # count of serializing insts renamed
system.cpu.rename.skidInsts                    216350                       # count of insts added to the skid buffer
system.cpu.rename.tempSerializingInsts            591                       # count of temporary serializing insts renamed
system.cpu.rename.vec_rename_lookups             1254                       # Number of vector rename lookups
system.cpu.rob.rob_reads                     17451472                       # The number of ROB reads
system.cpu.rob.rob_writes                    23833897                       # The number of ROB writes
system.cpu.timesIdled                            1399                       # Number of times that the entire CPU went into an idle state and unscheduled itself
system.cpu.vec_regfile_reads                      930                       # number of vector regfile reads
system.cpu.vec_regfile_writes                     264                       # number of vector regfile writes
system.cpu.workload.numSyscalls                     9                       # Number of system calls
system.membus.snoop_filter.hit_multi_requests            0                       # Number of requests hitting in the snoop filter with multiple (>1) holders of the requested data.
system.membus.snoop_filter.hit_multi_snoops            0                       # Number of snoops hitting in the snoop filter with multiple (>1) holders of the requested data.
system.membus.snoop_filter.hit_single_requests            0                       # Number of requests hitting in the snoop filter with a single holder of the requested data.
system.membus.snoop_filter.hit_single_snoops            0                       # Number of snoops hitting in the snoop filter with a single holder of the requested data.
system.membus.snoop_filter.tot_requests          8250                       # Total number of requests made to the snoop filter.
system.membus.snoop_filter.tot_snoops               0                       # Total number of snoops made to the snoop filter.
system.tol2bus.snoop_filter.hit_multi_requests            1                       # Number of requests hitting in the snoop filter with multiple (>1) holders of the requested data.
system.tol2bus.snoop_filter.hit_multi_snoops            0                       # Number of snoops hitting in the snoop filter with multiple (>1) holders of the requested data.
system.tol2bus.snoop_filter.hit_single_requests        33463                       # Number of requests hitting in the snoop filter with a single holder of the requested data.
system.tol2bus.snoop_filter.hit_single_snoops            0                       # Number of snoops hitting in the snoop filter with a single holder of the requested data.
system.tol2bus.snoop_filter.tot_requests        68206                       # Total number of requests made to the snoop filter.
system.tol2bus.snoop_filter.tot_snoops              0                       # Total number of snoops made to the snoop filter.
system.membus.trans_dist::ReadResp               5681                       # Transaction distribution
system.membus.trans_dist::ReadExReq              2421                       # Transaction distribution
system.membus.trans_dist::ReadExResp             2421                       # Transaction distribution
system.membus.trans_dist::ReadSharedReq          5681                       # Transaction distribution
system.membus.trans_dist::InvalidateReq           148                       # Transaction distribution
system.membus.pkt_count_system.l2.mem_side::system.mem_ctrls.port        16352                       # Packet count per connected master and slave (bytes)
system.membus.pkt_count::total                  16352                       # Packet count per connected master and slave (bytes)
system.membus.pkt_size_system.l2.mem_side::system.mem_ctrls.port       518528                       # Cumulative packet size per connected master and slave (bytes)
system.membus.pkt_size::total                  518528                       # Cumulative packet size per connected master and slave (bytes)
system.membus.snoops                                0                       # Total snoops (count)
system.membus.snoopTraffic                          0                       # Total snoop traffic (bytes)
system.membus.snoop_fanout::samples              8250                       # Request fanout histogram
system.membus.snoop_fanout::mean                    0                       # Request fanout histogram
system.membus.snoop_fanout::stdev                   0                       # Request fanout histogram
system.membus.snoop_fanout::underflows              0      0.00%      0.00% # Request fanout histogram
system.membus.snoop_fanout::0                    8250    100.00%    100.00% # Request fanout histogram
system.membus.snoop_fanout::1                       0      0.00%    100.00% # Request fanout histogram
system.membus.snoop_fanout::overflows               0      0.00%    100.00% # Request fanout histogram
system.membus.snoop_fanout::min_value               0                       # Request fanout histogram
system.membus.snoop_fanout::max_value               0                       # Request fanout histogram
system.membus.snoop_fanout::total                8250                       # Request fanout histogram
system.membus.reqLayer0.occupancy             9916500                       # Layer occupancy (ticks)
system.membus.reqLayer0.utilization               0.3                       # Layer utilization (%)
system.membus.respLayer1.occupancy           42759000                       # Layer occupancy (ticks)
system.membus.respLayer1.utilization              1.4                       # Layer utilization (%)
system.membus.power_state.pwrStateResidencyTicks::UNDEFINED   3113714500                       # Cumulative time (in ticks) in various power states
system.tol2bus.trans_dist::ReadResp             32137                       # Transaction distribution
system.tol2bus.trans_dist::WritebackDirty         8305                       # Transaction distribution
system.tol2bus.trans_dist::WritebackClean         1765                       # Transaction distribution
system.tol2bus.trans_dist::CleanEvict           23393                       # Transaction distribution
system.tol2bus.trans_dist::ReadExReq             2457                       # Transaction distribution
system.tol2bus.trans_dist::ReadExResp            2457                       # Transaction distribution
system.tol2bus.trans_dist::ReadCleanReq          2021                       # Transaction distribution
system.tol2bus.trans_dist::ReadSharedReq        30116                       # Transaction distribution
system.tol2bus.trans_dist::InvalidateReq          149                       # Transaction distribution
system.tol2bus.trans_dist::InvalidateResp          149                       # Transaction distribution
system.tol2bus.pkt_count_system.cpu.icache.mem_side::system.l2.cpu_side         5807                       # Packet count per connected master and slave (bytes)
system.tol2bus.pkt_count_system.cpu.dcache.mem_side::system.l2.cpu_side        97142                       # Packet count per connected master and slave (bytes)
system.tol2bus.pkt_count::total                102949                       # Packet count per connected master and slave (bytes)
system.tol2bus.pkt_size_system.cpu.icache.mem_side::system.l2.cpu_side       242304                       # Cumulative packet size per connected master and slave (bytes)
system.tol2bus.pkt_size_system.cpu.dcache.mem_side::system.l2.cpu_side      2616192                       # Cumulative packet size per connected master and slave (bytes)
system.tol2bus.pkt_size::total                2858496                       # Cumulative packet size per connected master and slave (bytes)
system.tol2bus.snoops                               0                       # Total snoops (count)
system.tol2bus.snoopTraffic                         0                       # Total snoop traffic (bytes)
system.tol2bus.snoop_fanout::samples            34743                       # Request fanout histogram
system.tol2bus.snoop_fanout::mean            0.000029                       # Request fanout histogram
system.tol2bus.snoop_fanout::stdev           0.005365                       # Request fanout histogram
system.tol2bus.snoop_fanout::underflows             0      0.00%      0.00% # Request fanout histogram
system.tol2bus.snoop_fanout::0                  34742    100.00%    100.00% # Request fanout histogram
system.tol2bus.snoop_fanout::1                      1      0.00%    100.00% # Request fanout histogram
system.tol2bus.snoop_fanout::2                      0      0.00%    100.00% # Request fanout histogram
system.tol2bus.snoop_fanout::overflows              0      0.00%    100.00% # Request fanout histogram
system.tol2bus.snoop_fanout::min_value              0                       # Request fanout histogram
system.tol2bus.snoop_fanout::max_value              1                       # Request fanout histogram
system.tol2bus.snoop_fanout::total              34743                       # Request fanout histogram
system.tol2bus.reqLayer0.occupancy           44173000                       # Layer occupancy (ticks)
system.tol2bus.reqLayer0.utilization              1.4                       # Layer utilization (%)
system.tol2bus.respLayer1.occupancy          48934000                       # Layer occupancy (ticks)
system.tol2bus.respLayer1.utilization             1.6                       # Layer utilization (%)
system.tol2bus.respLayer0.occupancy           3031500                       # Layer occupancy (ticks)
system.tol2bus.respLayer0.utilization             0.1                       # Layer utilization (%)
system.tol2bus.power_state.pwrStateResidencyTicks::UNDEFINED   3113714500                       # Cumulative time (in ticks) in various power states
system.voltage_domain.voltage                       1                       # Voltage in Volts
system.clk_domain.clock                          1000                       # Clock period in ticks
system.l2.demand_hits::.cpu.inst                  497                       # number of demand (read+write) hits
system.l2.demand_hits::.cpu.data                25995                       # number of demand (read+write) hits
system.l2.demand_hits::total                    26492                       # number of demand (read+write) hits
system.l2.overall_hits::.cpu.inst                 497                       # number of overall hits
system.l2.overall_hits::.cpu.data               25995                       # number of overall hits
system.l2.overall_hits::total                   26492                       # number of overall hits
system.l2.demand_misses::.cpu.inst               1524                       # number of demand (read+write) misses
system.l2.demand_misses::.cpu.data               6578                       # number of demand (read+write) misses
system.l2.demand_misses::total                   8102                       # number of demand (read+write) misses
system.l2.overall_misses::.cpu.inst              1524                       # number of overall misses
system.l2.overall_misses::.cpu.data              6578                       # number of overall misses
system.l2.overall_misses::total                  8102                       # number of overall misses
system.l2.demand_miss_latency::.cpu.inst    118173500                       # number of demand (read+write) miss cycles
system.l2.demand_miss_latency::.cpu.data    495780000                       # number of demand (read+write) miss cycles
system.l2.demand_miss_latency::total        613953500                       # number of demand (read+write) miss cycles
system.l2.overall_miss_latency::.cpu.inst    118173500                       # number of overall miss cycles
system.l2.overall_miss_latency::.cpu.data    495780000                       # number of overall miss cycles
system.l2.overall_miss_latency::total       613953500                       # number of overall miss cycles
system.l2.demand_accesses::.cpu.inst             2021                       # number of demand (read+write) accesses
system.l2.demand_accesses::.cpu.data            32573                       # number of demand (read+write) accesses
system.l2.demand_accesses::total                34594                       # number of demand (read+write) accesses
system.l2.overall_accesses::.cpu.inst            2021                       # number of overall (read+write) accesses
system.l2.overall_accesses::.cpu.data           32573                       # number of overall (read+write) accesses
system.l2.overall_accesses::total               34594                       # number of overall (read+write) accesses
system.l2.demand_miss_rate::.cpu.inst        0.754082                       # miss rate for demand accesses
system.l2.demand_miss_rate::.cpu.data        0.201946                       # miss rate for demand accesses
system.l2.demand_miss_rate::total            0.234202                       # miss rate for demand accesses
system.l2.overall_miss_rate::.cpu.inst       0.754082                       # miss rate for overall accesses
system.l2.overall_miss_rate::.cpu.data       0.201946                       # miss rate for overall accesses
system.l2.overall_miss_rate::total           0.234202                       # miss rate for overall accesses
system.l2.demand_avg_miss_latency::.cpu.inst 77541.666667                       # average overall miss latency
system.l2.demand_avg_miss_latency::.cpu.data 75369.413196                       # average overall miss latency
system.l2.demand_avg_miss_latency::total 75778.017773                       # average overall miss latency
system.l2.overall_avg_miss_latency::.cpu.inst 77541.666667                       # average overall miss latency
system.l2.overall_avg_miss_latency::.cpu.data 75369.413196                       # average overall miss latency
system.l2.overall_avg_miss_latency::total 75778.017773                       # average overall miss latency
system.l2.blocked_cycles::no_mshrs                  0                       # number of cycles access was blocked
system.l2.blocked_cycles::no_targets                0                       # number of cycles access was blocked
system.l2.blocked::no_mshrs                         0                       # number of cycles access was blocked
system.l2.blocked::no_targets                       0                       # number of cycles access was blocked
system.l2.avg_blocked_cycles::no_mshrs            nan                       # average number of cycles each access was blocked
system.l2.avg_blocked_cycles::no_targets          nan                       # average number of cycles each access was blocked
system.l2.demand_mshr_misses::.cpu.inst          1524                       # number of demand (read+write) MSHR misses
system.l2.demand_mshr_misses::.cpu.data          6578                       # number of demand (read+write) MSHR misses
system.l2.demand_mshr_misses::total              8102                       # number of demand (read+write) MSHR misses
system.l2.overall_mshr_misses::.cpu.inst         1524                       # number of overall MSHR misses
system.l2.overall_mshr_misses::.cpu.data         6578                       # number of overall MSHR misses
system.l2.overall_mshr_misses::total             8102                       # number of overall MSHR misses
system.l2.demand_mshr_miss_latency::.cpu.inst    102933500                       # number of demand (read+write) MSHR miss cycles
system.l2.demand_mshr_miss_latency::.cpu.data    430000000                       # number of demand (read+write) MSHR miss cycles
system.l2.demand_mshr_miss_latency::total    532933500                       # number of demand (read+write) MSHR miss cycles
system.l2.overall_mshr_miss_latency::.cpu.inst    102933500                       # number of overall MSHR miss cycles
system.l2.overall_mshr_miss_latency::.cpu.data    430000000                       # number of overall MSHR miss cycles
system.l2.overall_mshr_miss_latency::total    532933500                       # number of overall MSHR miss cycles
system.l2.demand_mshr_miss_rate::.cpu.inst     0.754082                       # mshr miss rate for demand accesses
system.l2.demand_mshr_miss_rate::.cpu.data     0.201946                       # mshr miss rate for demand accesses
system.l2.demand_mshr_miss_rate::total       0.234202                       # mshr miss rate for demand accesses
system.l2.overall_mshr_miss_rate::.cpu.inst     0.754082                       # mshr miss rate for overall accesses
system.l2.overall_mshr_miss_rate::.cpu.data     0.201946                       # mshr miss rate for overall accesses
system.l2.overall_mshr_miss_rate::total      0.234202                       # mshr miss rate for overall accesses
system.l2.demand_avg_mshr_miss_latency::.cpu.inst 67541.666667                       # average overall mshr miss latency
system.l2.demand_avg_mshr_miss_latency::.cpu.data 65369.413196                       # average overall mshr miss latency
system.l2.demand_avg_mshr_miss_latency::total 65778.017773                       # average overall mshr miss latency
system.l2.overall_avg_mshr_miss_latency::.cpu.inst 67541.666667                       # average overall mshr miss latency
system.l2.overall_avg_mshr_miss_latency::.cpu.data 65369.413196                       # average overall mshr miss latency
system.l2.overall_avg_mshr_miss_latency::total 65778.017773                       # average overall mshr miss latency
system.l2.replacements                              0                       # number of replacements
system.l2.WritebackDirty_hits::.writebacks         8305                       # number of WritebackDirty hits
system.l2.WritebackDirty_hits::total             8305                       # number of WritebackDirty hits
system.l2.WritebackDirty_accesses::.writebacks         8305                       # number of WritebackDirty accesses(hits+misses)
system.l2.WritebackDirty_accesses::total         8305                       # number of WritebackDirty accesses(hits+misses)
system.l2.WritebackClean_hits::.writebacks         1764                       # number of WritebackClean hits
system.l2.WritebackClean_hits::total             1764                       # number of WritebackClean hits
system.l2.WritebackClean_accesses::.writebacks         1764                       # number of WritebackClean accesses(hits+misses)
system.l2.WritebackClean_accesses::total         1764                       # number of WritebackClean accesses(hits+misses)
system.l2.ReadExReq_hits::.cpu.data                36                       # number of ReadExReq hits
system.l2.ReadExReq_hits::total                    36                       # number of ReadExReq hits
system.l2.ReadExReq_misses::.cpu.data            2421                       # number of ReadExReq misses
system.l2.ReadExReq_misses::total                2421                       # number of ReadExReq misses
system.l2.ReadExReq_miss_latency::.cpu.data    186650500                       # number of ReadExReq miss cycles
system.l2.ReadExReq_miss_latency::total     186650500                       # number of ReadExReq miss cycles
system.l2.ReadExReq_accesses::.cpu.data          2457                       # number of ReadExReq accesses(hits+misses)
system.l2.ReadExReq_accesses::total              2457                       # number of ReadExReq accesses(hits+misses)
system.l2.ReadExReq_miss_rate::.cpu.data     0.985348                       # miss rate for ReadExReq accesses
system.l2.ReadExReq_miss_rate::total         0.985348                       # miss rate for ReadExReq accesses
system.l2.ReadExReq_avg_miss_latency::.cpu.data 77096.447749                       # average ReadExReq miss latency
system.l2.ReadExReq_avg_miss_latency::total 77096.447749                       # average ReadExReq miss latency
system.l2.ReadExReq_mshr_misses::.cpu.data         2421                       # number of ReadExReq MSHR misses
system.l2.ReadExReq_mshr_misses::total           2421                       # number of ReadExReq MSHR misses
system.l2.ReadExReq_mshr_miss_latency::.cpu.data    162440500                       # number of ReadExReq MSHR miss cycles
system.l2.ReadExReq_mshr_miss_latency::total    162440500                       # number of ReadExReq MSHR miss cycles
system.l2.ReadExReq_mshr_miss_rate::.cpu.data     0.985348                       # mshr miss rate for ReadExReq accesses
system.l2.ReadExReq_mshr_miss_rate::total     0.985348                       # mshr miss rate for ReadExReq accesses
system.l2.ReadExReq_avg_mshr_miss_latency::.cpu.data 67096.447749                       # average ReadExReq mshr miss latency
system.l2.ReadExReq_avg_mshr_miss_latency::total 67096.447749                       # average ReadExReq mshr miss latency
system.l2.ReadCleanReq_hits::.cpu.inst            497                       # number of ReadCleanReq hits
system.l2.ReadCleanReq_hits::total                497                       # number of ReadCleanReq hits
system.l2.ReadCleanReq_misses::.cpu.inst         1524                       # number of ReadCleanReq misses
system.l2.ReadCleanReq_misses::total             1524                       # number of ReadCleanReq misses
system.l2.ReadCleanReq_miss_latency::.cpu.inst    118173500                       # number of ReadCleanReq miss cycles
system.l2.ReadCleanReq_miss_latency::total    118173500                       # number of ReadCleanReq miss cycles
system.l2.ReadCleanReq_accesses::.cpu.inst         2021                       # number of ReadCleanReq accesses(hits+misses)
system.l2.ReadCleanReq_accesses::total           2021                       # number of ReadCleanReq accesses(hits+misses)
system.l2.ReadCleanReq_miss_rate::.cpu.inst     0.754082                       # miss rate for ReadCleanReq accesses
system.l2.ReadCleanReq_miss_rate::total      0.754082                       # miss rate for ReadCleanReq accesses
system.l2.ReadCleanReq_avg_miss_latency::.cpu.inst 77541.666667                       # average ReadCleanReq miss latency
system.l2.ReadCleanReq_avg_miss_latency::total 77541.666667                       # average ReadCleanReq miss latency
system.l2.ReadCleanReq_mshr_misses::.cpu.inst         1524                       # number of ReadCleanReq MSHR misses
system.l2.ReadCleanReq_mshr_misses::total         1524                       # number of ReadCleanReq MSHR misses
system.l2.ReadCleanReq_mshr_miss_latency::.cpu.inst    102933500                       # number of ReadCleanReq MSHR miss cycles
system.l2.ReadCleanReq_mshr_miss_latency::total    102933500                       # number of ReadCleanReq MSHR miss cycles
system.l2.ReadCleanReq_mshr_miss_rate::.cpu.inst     0.754082                       # mshr miss rate for ReadCleanReq accesses
system.l2.ReadCleanReq_mshr_miss_rate::total     0.754082                       # mshr miss rate for ReadCleanReq accesses
system.l2.ReadCleanReq_avg_mshr_miss_latency::.cpu.inst 67541.666667                       # average ReadCleanReq mshr miss latency
system.l2.ReadCleanReq_avg_mshr_miss_latency::total 67541.666667                       # average ReadCleanReq mshr miss latency
[...]
system.cpu.dcache.demand_accesses::total      2140083                       # number of demand (read+write) accesses
system.cpu.dcache.overall_accesses::.cpu.data      2140095                       # number of overall (read+write) accesses
system.cpu.dcache.overall_accesses::total      2140095                       # number of overall (read+write) accesses
system.cpu.dcache.demand_miss_rate::.cpu.data     0.029892                       # miss rate for demand accesses
system.cpu.dcache.demand_miss_rate::total     0.029892                       # miss rate for demand accesses
system.cpu.dcache.overall_miss_rate::.cpu.data     0.029893                       # miss rate for overall accesses
system.cpu.dcache.overall_miss_rate::total     0.029893                       # miss rate for overall accesses
system.cpu.dcache.demand_avg_miss_latency::.cpu.data 32699.423489                       # average overall miss latency
system.cpu.dcache.demand_avg_miss_latency::total 32699.423489                       # average overall miss latency
system.cpu.dcache.overall_avg_miss_latency::.cpu.data 32698.401201                       # average overall miss latency
system.cpu.dcache.overall_avg_miss_latency::total 32698.401201                       # average overall miss latency
system.cpu.dcache.blocked_cycles::no_mshrs         8685                       # number of cycles access was blocked
system.cpu.dcache.blocked_cycles::no_targets            0                       # number of cycles access was blocked
system.cpu.dcache.blocked::no_mshrs               262                       # number of cycles access was blocked
system.cpu.dcache.blocked::no_targets               0                       # number of cycles access was blocked
system.cpu.dcache.avg_blocked_cycles::no_mshrs    33.148855                       # average number of cycles each access was blocked
system.cpu.dcache.avg_blocked_cycles::no_targets          nan                       # average number of cycles each access was blocked
system.cpu.dcache.writebacks::.writebacks         8305                       # number of writebacks
system.cpu.dcache.writebacks::total              8305                       # number of writebacks
system.cpu.dcache.demand_mshr_hits::.cpu.data        31254                       # number of demand (read+write) MSHR hits
system.cpu.dcache.demand_mshr_hits::total        31254                       # number of demand (read+write) MSHR hits
system.cpu.dcache.overall_mshr_hits::.cpu.data        31254                       # number of overall MSHR hits
system.cpu.dcache.overall_mshr_hits::total        31254                       # number of overall MSHR hits
system.cpu.dcache.demand_mshr_misses::.cpu.data        32717                       # number of demand (read+write) MSHR misses
system.cpu.dcache.demand_mshr_misses::total        32717                       # number of demand (read+write) MSHR misses
system.cpu.dcache.overall_mshr_misses::.cpu.data        32719                       # number of overall MSHR misses
system.cpu.dcache.overall_mshr_misses::total        32719                       # number of overall MSHR misses
system.cpu.dcache.demand_mshr_miss_latency::.cpu.data    821956394                       # number of demand (read+write) MSHR miss cycles
system.cpu.dcache.demand_mshr_miss_latency::total    821956394                       # number of demand (read+write) MSHR miss cycles
system.cpu.dcache.overall_mshr_miss_latency::.cpu.data    822140894                       # number of overall MSHR miss cycles
system.cpu.dcache.overall_mshr_miss_latency::total    822140894                       # number of overall MSHR miss cycles
system.cpu.dcache.demand_mshr_miss_rate::.cpu.data     0.015288                       # mshr miss rate for demand accesses
system.cpu.dcache.demand_mshr_miss_rate::total     0.015288                       # mshr miss rate for demand accesses
system.cpu.dcache.overall_mshr_miss_rate::.cpu.data     0.015289                       # mshr miss rate for overall accesses
system.cpu.dcache.overall_mshr_miss_rate::total     0.015289                       # mshr miss rate for overall accesses
system.cpu.dcache.demand_avg_mshr_miss_latency::.cpu.data 25123.220161                       # average overall mshr miss latency
system.cpu.dcache.demand_avg_mshr_miss_latency::total 25123.220161                       # average overall mshr miss latency
system.cpu.dcache.overall_avg_mshr_miss_latency::.cpu.data 25127.323390                       # average overall mshr miss latency
system.cpu.dcache.overall_avg_mshr_miss_latency::total 25127.323390                       # average overall mshr miss latency
system.cpu.dcache.replacements                  31698                       # number of replacements
system.cpu.dcache.ReadReq_hits::.cpu.data      1143301                       # number of ReadReq hits
system.cpu.dcache.ReadReq_hits::total         1143301                       # number of ReadReq hits
system.cpu.dcache.ReadReq_misses::.cpu.data        54709                       # number of ReadReq misses
system.cpu.dcache.ReadReq_misses::total         54709                       # number of ReadReq misses
system.cpu.dcache.ReadReq_miss_latency::.cpu.data   1582032500                       # number of ReadReq miss cycles
system.cpu.dcache.ReadReq_miss_latency::total   1582032500                       # number of ReadReq miss cycles
system.cpu.dcache.ReadReq_accesses::.cpu.data      1198010                       # number of ReadReq accesses(hits+misses)
system.cpu.dcache.ReadReq_accesses::total      1198010                       # number of ReadReq accesses(hits+misses)
system.cpu.dcache.ReadReq_miss_rate::.cpu.data     0.045667                       # miss rate for ReadReq accesses
system.cpu.dcache.ReadReq_miss_rate::total     0.045667                       # miss rate for ReadReq accesses
system.cpu.dcache.ReadReq_avg_miss_latency::.cpu.data 28917.225685                       # average ReadReq miss latency
system.cpu.dcache.ReadReq_avg_miss_latency::total 28917.225685                       # average ReadReq miss latency
system.cpu.dcache.ReadReq_mshr_hits::.cpu.data        24598                       # number of ReadReq MSHR hits
system.cpu.dcache.ReadReq_mshr_hits::total        24598                       # number of ReadReq MSHR hits
system.cpu.dcache.ReadReq_mshr_misses::.cpu.data        30111                       # number of ReadReq MSHR misses
system.cpu.dcache.ReadReq_mshr_misses::total        30111                       # number of ReadReq MSHR misses
system.cpu.dcache.ReadReq_mshr_miss_latency::.cpu.data    626600500                       # number of ReadReq MSHR miss cycles
system.cpu.dcache.ReadReq_mshr_miss_latency::total    626600500                       # number of ReadReq MSHR miss cycles
system.cpu.dcache.ReadReq_mshr_miss_rate::.cpu.data     0.025134                       # mshr miss rate for ReadReq accesses
system.cpu.dcache.ReadReq_mshr_miss_rate::total     0.025134                       # mshr miss rate for ReadReq accesses
system.cpu.dcache.ReadReq_avg_mshr_miss_latency::.cpu.data 20809.687490                       # average ReadReq mshr miss latency
system.cpu.dcache.ReadReq_avg_mshr_miss_latency::total 20809.687490                       # average ReadReq mshr miss latency
system.cpu.dcache.WriteReq_hits::.cpu.data       932799                       # number of WriteReq hits
system.cpu.dcache.WriteReq_hits::total         932799                       # number of WriteReq hits
system.cpu.dcache.WriteReq_misses::.cpu.data         9123                       # number of WriteReq misses
system.cpu.dcache.WriteReq_misses::total         9123                       # number of WriteReq misses
system.cpu.dcache.WriteReq_miss_latency::.cpu.data    505332413                       # number of WriteReq miss cycles
system.cpu.dcache.WriteReq_miss_latency::total    505332413                       # number of WriteReq miss cycles
system.cpu.dcache.WriteReq_accesses::.cpu.data       941922                       # number of WriteReq accesses(hits+misses)
system.cpu.dcache.WriteReq_accesses::total       941922                       # number of WriteReq accesses(hits+misses)
system.cpu.dcache.WriteReq_miss_rate::.cpu.data     0.009686                       # miss rate for WriteReq accesses
system.cpu.dcache.WriteReq_miss_rate::total     0.009686                       # miss rate for WriteReq accesses
system.cpu.dcache.WriteReq_avg_miss_latency::.cpu.data 55391.035076                       # average WriteReq miss latency
system.cpu.dcache.WriteReq_avg_miss_latency::total 55391.035076                       # average WriteReq miss latency
system.cpu.dcache.WriteReq_mshr_hits::.cpu.data         6656                       # number of WriteReq MSHR hits
system.cpu.dcache.WriteReq_mshr_hits::total         6656                       # number of WriteReq MSHR hits
system.cpu.dcache.WriteReq_mshr_misses::.cpu.data         2467                       # number of WriteReq MSHR misses
system.cpu.dcache.WriteReq_mshr_misses::total         2467                       # number of WriteReq MSHR misses
system.cpu.dcache.WriteReq_mshr_miss_latency::.cpu.data    191044987                       # number of WriteReq MSHR miss cycles
system.cpu.dcache.WriteReq_mshr_miss_latency::total    191044987                       # number of WriteReq MSHR miss cycles
system.cpu.dcache.WriteReq_mshr_miss_rate::.cpu.data     0.002619                       # mshr miss rate for WriteReq accesses
system.cpu.dcache.WriteReq_mshr_miss_rate::total     0.002619                       # mshr miss rate for WriteReq accesses
system.cpu.dcache.WriteReq_avg_mshr_miss_latency::.cpu.data 77440.205513                       # average WriteReq mshr miss latency
system.cpu.dcache.WriteReq_avg_mshr_miss_latency::total 77440.205513                       # average WriteReq mshr miss latency
system.cpu.dcache.SoftPFReq_hits::.cpu.data           10                       # number of SoftPFReq hits
system.cpu.dcache.SoftPFReq_hits::total            10                       # number of SoftPFReq hits
system.cpu.dcache.SoftPFReq_misses::.cpu.data            2                       # number of SoftPFReq misses
system.cpu.dcache.SoftPFReq_misses::total            2                       # number of SoftPFReq misses
system.cpu.dcache.SoftPFReq_accesses::.cpu.data           12                       # number of SoftPFReq accesses(hits+misses)
system.cpu.dcache.SoftPFReq_accesses::total           12                       # number of SoftPFReq accesses(hits+misses)
system.cpu.dcache.SoftPFReq_miss_rate::.cpu.data     0.166667                       # miss rate for SoftPFReq accesses
system.cpu.dcache.SoftPFReq_miss_rate::total     0.166667                       # miss rate for SoftPFReq accesses
system.cpu.dcache.SoftPFReq_mshr_misses::.cpu.data            2                       # number of SoftPFReq MSHR misses
system.cpu.dcache.SoftPFReq_mshr_misses::total            2                       # number of SoftPFReq MSHR misses
system.cpu.dcache.SoftPFReq_mshr_miss_latency::.cpu.data       184500                       # number of SoftPFReq MSHR miss cycles
system.cpu.dcache.SoftPFReq_mshr_miss_latency::total       184500                       # number of SoftPFReq MSHR miss cycles
system.cpu.dcache.SoftPFReq_mshr_miss_rate::.cpu.data     0.166667                       # mshr miss rate for SoftPFReq accesses
system.cpu.dcache.SoftPFReq_mshr_miss_rate::total     0.166667                       # mshr miss rate for SoftPFReq accesses
system.cpu.dcache.SoftPFReq_avg_mshr_miss_latency::.cpu.data        92250                       # average SoftPFReq mshr miss latency
system.cpu.dcache.SoftPFReq_avg_mshr_miss_latency::total        92250                       # average SoftPFReq mshr miss latency
system.cpu.dcache.WriteLineReq_hits::.cpu.data           12                       # number of WriteLineReq hits
system.cpu.dcache.WriteLineReq_hits::total           12                       # number of WriteLineReq hits
system.cpu.dcache.WriteLineReq_misses::.cpu.data          139                       # number of WriteLineReq misses
system.cpu.dcache.WriteLineReq_misses::total          139                       # number of WriteLineReq misses
system.cpu.dcache.WriteLineReq_miss_latency::.cpu.data      4449907                       # number of WriteLineReq miss cycles
system.cpu.dcache.WriteLineReq_miss_latency::total      4449907                       # number of WriteLineReq miss cycles
system.cpu.dcache.WriteLineReq_accesses::.cpu.data          151                       # number of WriteLineReq accesses(hits+misses)
system.cpu.dcache.WriteLineReq_accesses::total          151                       # number of WriteLineReq accesses(hits+misses)
system.cpu.dcache.WriteLineReq_miss_rate::.cpu.data     0.920530                       # miss rate for WriteLineReq accesses
system.cpu.dcache.WriteLineReq_miss_rate::total     0.920530                       # miss rate for WriteLineReq accesses
system.cpu.dcache.WriteLineReq_avg_miss_latency::.cpu.data 32013.719424                       # average WriteLineReq miss latency
system.cpu.dcache.WriteLineReq_avg_miss_latency::total 32013.719424                       # average WriteLineReq miss latency
system.cpu.dcache.WriteLineReq_mshr_misses::.cpu.data          139                       # number of WriteLineReq MSHR misses
system.cpu.dcache.WriteLineReq_mshr_misses::total          139                       # number of WriteLineReq MSHR misses
system.cpu.dcache.WriteLineReq_mshr_miss_latency::.cpu.data      4310907                       # number of WriteLineReq MSHR miss cycles
system.cpu.dcache.WriteLineReq_mshr_miss_latency::total      4310907                       # number of WriteLineReq MSHR miss cycles
system.cpu.dcache.WriteLineReq_mshr_miss_rate::.cpu.data     0.920530                       # mshr miss rate for WriteLineReq accesses
system.cpu.dcache.WriteLineReq_mshr_miss_rate::total     0.920530                       # mshr miss rate for WriteLineReq accesses
system.cpu.dcache.WriteLineReq_avg_mshr_miss_latency::.cpu.data 31013.719424                       # average WriteLineReq mshr miss latency
system.cpu.dcache.WriteLineReq_avg_mshr_miss_latency::total 31013.719424                       # average WriteLineReq mshr miss latency
system.cpu.dcache.LoadLockedReq_hits::.cpu.data          554                       # number of LoadLockedReq hits
system.cpu.dcache.LoadLockedReq_hits::total          554                       # number of LoadLockedReq hits
system.cpu.dcache.LoadLockedReq_misses::.cpu.data            4                       # number of LoadLockedReq misses
system.cpu.dcache.LoadLockedReq_misses::total            4                       # number of LoadLockedReq misses
system.cpu.dcache.LoadLockedReq_miss_latency::.cpu.data       294000                       # number of LoadLockedReq miss cycles
system.cpu.dcache.LoadLockedReq_miss_latency::total       294000                       # number of LoadLockedReq miss cycles
system.cpu.dcache.LoadLockedReq_accesses::.cpu.data          558                       # number of LoadLockedReq accesses(hits+misses)
system.cpu.dcache.LoadLockedReq_accesses::total          558                       # number of LoadLockedReq accesses(hits+misses)
system.cpu.dcache.LoadLockedReq_miss_rate::.cpu.data     0.007168                       # miss rate for LoadLockedReq accesses
system.cpu.dcache.LoadLockedReq_miss_rate::total     0.007168                       # miss rate for LoadLockedReq accesses
system.cpu.dcache.LoadLockedReq_avg_miss_latency::.cpu.data        73500                       # average LoadLockedReq miss latency
system.cpu.dcache.LoadLockedReq_avg_miss_latency::total        73500                       # average LoadLockedReq miss latency
system.cpu.dcache.LoadLockedReq_mshr_hits::.cpu.data            1                       # number of LoadLockedReq MSHR hits
system.cpu.dcache.LoadLockedReq_mshr_hits::total            1                       # number of LoadLockedReq MSHR hits
system.cpu.dcache.LoadLockedReq_mshr_misses::.cpu.data            3                       # number of LoadLockedReq MSHR misses
system.cpu.dcache.LoadLockedReq_mshr_misses::total            3                       # number of LoadLockedReq MSHR misses
system.cpu.dcache.LoadLockedReq_mshr_miss_latency::.cpu.data       203500                       # number of LoadLockedReq MSHR miss cycles
system.cpu.dcache.LoadLockedReq_mshr_miss_latency::total       203500                       # number of LoadLockedReq MSHR miss cycles
system.cpu.dcache.LoadLockedReq_mshr_miss_rate::.cpu.data     0.005376                       # mshr miss rate for LoadLockedReq accesses
system.cpu.dcache.LoadLockedReq_mshr_miss_rate::total     0.005376                       # mshr miss rate for LoadLockedReq accesses
system.cpu.dcache.LoadLockedReq_avg_mshr_miss_latency::.cpu.data 67833.333333                       # average LoadLockedReq mshr miss latency
system.cpu.dcache.LoadLockedReq_avg_mshr_miss_latency::total 67833.333333                       # average LoadLockedReq mshr miss latency
system.cpu.dcache.StoreCondReq_hits::.cpu.data          530                       # number of StoreCondReq hits
system.cpu.dcache.StoreCondReq_hits::total          530                       # number of StoreCondReq hits
system.cpu.dcache.StoreCondReq_accesses::.cpu.data          530                       # number of StoreCondReq accesses(hits+misses)
system.cpu.dcache.StoreCondReq_accesses::total          530                       # number of StoreCondReq accesses(hits+misses)
system.cpu.dcache.power_state.pwrStateResidencyTicks::UNDEFINED   3113714500                       # Cumulative time (in ticks) in various power states
system.cpu.dcache.tags.tagsinuse           987.726172                       # Cycle average of tags in use
system.cpu.dcache.tags.total_refs             2109928                       # Total number of references to valid blocks.
system.cpu.dcache.tags.sampled_refs             32722                       # Sample count of references to valid blocks.
system.cpu.dcache.tags.avg_refs             64.480411                       # Average number of references to valid blocks.
system.cpu.dcache.tags.warmup_cycle            176500                       # Cycle when the warmup percentage was hit.
system.cpu.dcache.tags.occ_blocks::.cpu.data   987.726172                       # Average occupied blocks per requestor
system.cpu.dcache.tags.occ_percent::.cpu.data     0.964576                       # Average percentage of cache occupancy
system.cpu.dcache.tags.occ_percent::total     0.964576                       # Average percentage of cache occupancy
system.cpu.dcache.tags.occ_task_id_blocks::1024         1024                       # Occupied blocks per task id
system.cpu.dcache.tags.age_task_id_blocks_1024::0           29                       # Occupied blocks per task id
system.cpu.dcache.tags.age_task_id_blocks_1024::1          204                       # Occupied blocks per task id
system.cpu.dcache.tags.age_task_id_blocks_1024::2          778                       # Occupied blocks per task id
system.cpu.dcache.tags.age_task_id_blocks_1024::3           13                       # Occupied blocks per task id
system.cpu.dcache.tags.occ_task_id_percent::1024            1                       # Percentage of cache occupancy per task id
system.cpu.dcache.tags.tag_accesses           4315088                       # Number of tag accesses
system.cpu.dcache.tags.data_accesses          4315088                       # Number of data accesses
system.cpu.dcache.tags.power_state.pwrStateResidencyTicks::UNDEFINED   3113714500                       # Cumulative time (in ticks) in various power states
system.cpu.power_state.pwrStateResidencyTicks::ON   3113714500                       # Cumulative time (in ticks) in various power states

---------- End Simulation Statistics   ----------
