
---------- Begin Simulation Statistics ----------
final_tick                                   68438500                       # Number of ticks from beginning of simulation (restored from checkpoints and never reset)
host_inst_rate                                  35311                       # Simulator instruction rate (inst/s)
host_mem_usage                                 870368                       # Number of bytes of host memory used
host_op_rate                                    43951                       # Simulator op (including micro ops) rate (op/s)
host_seconds                                     0.80                       # Real time elapsed on the host
host_tick_rate                               85287976                       # Simulator tick rate (ticks/s)
sim_freq                                 1000000000000                       # Frequency of simulated ticks
sim_insts                                       28328                       # Number of instructions simulated
sim_ops                                         35267                       # Number of ops (including micro ops) simulated
sim_seconds                                  0.000068                       # Number of seconds simulated
sim_ticks                                    68438500                       # Number of ticks simulated
system.cpu.branchPred.BTBCorrect                    0                       # Number of correct BTB predictions (this stat may not work properly.
system.cpu.branchPred.BTBHitPct             70.376379                       # BTB Hit Percentage
system.cpu.branchPred.BTBHits                    4338                       # Number of BTB hits
system.cpu.branchPred.BTBLookups                 6164                       # Number of BTB lookups
system.cpu.branchPred.RASInCorrect                  3                       # Number of incorrect RAS predictions.
system.cpu.branchPred.condIncorrect              1412                       # Number of conditional branches incorrect
system.cpu.branchPred.condPredicted              8857                       # Number of conditional branches predicted
system.cpu.branchPred.indirectHits                 57                       # Number of indirect target hits.
system.cpu.branchPred.indirectLookups             336                       # Number of indirect predictor lookups.
system.cpu.branchPred.indirectMisses              279                       # Number of indirect misses.
system.cpu.branchPred.lookups                   12213                       # Number of BP lookups
system.cpu.branchPred.usedRAS                     977                       # Number of times the RAS was used to get a target.
system.cpu.branchPredindirectMispredicted          104                       # Number of mispredicted indirect branches.
system.cpu.cc_regfile_reads                     12255                       # number of cc regfile reads
system.cpu.cc_regfile_writes                    11988                       # number of cc regfile writes
system.cpu.commit.amos                              0                       # Number of atomic instructions committed
system.cpu.commit.branchMispredicts               949                       # The number of times a branch was mispredicted
system.cpu.commit.branches                       6653                       # Number of branches committed
system.cpu.commit.bw_lim_events                  1123                       # number cycles where commit BW limit reached
system.cpu.commit.commitNonSpecStalls              47                       # The number of times commit has been forced to stall to communicate backwards
system.cpu.commit.commitSquashedInsts           13598                       # The number of squashed insts skipped by commit
system.cpu.commit.committedInsts                28408                       # Number of instructions committed
system.cpu.commit.committedOps                  35347                       # Number of ops (including micro ops) committed
system.cpu.commit.committed_per_cycle::samples        57851                       # Number of insts commited each cycle
system.cpu.commit.committed_per_cycle::mean     0.611001                       # Number of insts commited each cycle
system.cpu.commit.committed_per_cycle::stdev     1.575591                       # Number of insts commited each cycle
system.cpu.commit.committed_per_cycle::underflows            0      0.00%      0.00% # Number of insts commited each cycle
system.cpu.commit.committed_per_cycle::0        46188     79.84%     79.84% # Number of insts commited each cycle
system.cpu.commit.committed_per_cycle::1         4036      6.98%     86.82% # Number of insts commited each cycle
system.cpu.commit.committed_per_cycle::2         2241      3.87%     90.69% # Number of insts commited each cycle
system.cpu.commit.committed_per_cycle::3         1300      2.25%     92.94% # Number of insts commited each cycle
system.cpu.commit.committed_per_cycle::4         1792      3.10%     96.03% # Number of insts commited each cycle
system.cpu.commit.committed_per_cycle::5          523      0.90%     96.94% # Number of insts commited each cycle
system.cpu.commit.committed_per_cycle::6          374      0.65%     97.59% # Number of insts commited each cycle
system.cpu.commit.committed_per_cycle::7          274      0.47%     98.06% # Number of insts commited each cycle
system.cpu.commit.committed_per_cycle::8         1123      1.94%    100.00% # Number of insts commited each cycle
system.cpu.commit.committed_per_cycle::overflows            0      0.00%    100.00% # Number of insts commited each cycle
system.cpu.commit.committed_per_cycle::min_value            0                       # Number of insts commited each cycle
system.cpu.commit.committed_per_cycle::max_value            8                       # Number of insts commited each cycle
system.cpu.commit.committed_per_cycle::total        57851                       # Number of insts commited each cycle
system.cpu.commit.fp_insts                          0                       # Number of committed floating point instructions.
system.cpu.commit.function_calls                  548                       # Number of function calls committed.
system.cpu.commit.int_insts                     31603                       # Number of committed integer instructions.
system.cpu.commit.loads                          4526                       # Number of loads committed
system.cpu.commit.membars                          20                       # Number of memory barriers committed
system.cpu.commit.op_class_0::No_OpClass            7      0.02%      0.02% # Class of committed instruction
system.cpu.commit.op_class_0::IntAlu            24100     68.18%     68.20% # Class of committed instruction
system.cpu.commit.op_class_0::IntMult              42      0.12%     68.32% # Class of committed instruction
system.cpu.commit.op_class_0::IntDiv                2      0.01%     68.33% # Class of committed instruction
system.cpu.commit.op_class_0::FloatAdd              0      0.00%     68.33% # Class of committed instruction
system.cpu.commit.op_class_0::FloatCmp              0      0.00%     68.33% # Class of committed instruction
system.cpu.commit.op_class_0::FloatCvt              0      0.00%     68.33% # Class of committed instruction
system.cpu.commit.op_class_0::FloatMult             0      0.00%     68.33% # Class of committed instruction
system.cpu.commit.op_class_0::FloatMultAcc            0      0.00%     68.33% # Class of committed instruction
system.cpu.commit.op_class_0::FloatDiv              0      0.00%     68.33% # Class of committed instruction
system.cpu.commit.op_class_0::FloatMisc             0      0.00%     68.33% # Class of committed instruction
system.cpu.commit.op_class_0::FloatSqrt             0      0.00%     68.33% # Class of committed instruction
system.cpu.commit.op_class_0::SimdAdd              24      0.07%     68.39% # Class of committed instruction
system.cpu.commit.op_class_0::SimdAddAcc            0      0.00%     68.39% # Class of committed instruction
system.cpu.commit.op_class_0::SimdAlu              28      0.08%     68.47% # Class of committed instruction
system.cpu.commit.op_class_0::SimdCmp              28      0.08%     68.55% # Class of committed instruction
system.cpu.commit.op_class_0::SimdCvt               0      0.00%     68.55% # Class of committed instruction
system.cpu.commit.op_class_0::SimdMisc             32      0.09%     68.64% # Class of committed instruction
system.cpu.commit.op_class_0::SimdMult              0      0.00%     68.64% # Class of committed instruction
system.cpu.commit.op_class_0::SimdMultAcc            0      0.00%     68.64% # Class of committed instruction
system.cpu.commit.op_class_0::SimdShift             0      0.00%     68.64% # Class of committed instruction
system.cpu.commit.op_class_0::SimdShiftAcc            0      0.00%     68.64% # Class of committed instruction
system.cpu.commit.op_class_0::SimdDiv               0      0.00%     68.64% # Class of committed instruction
system.cpu.commit.op_class_0::SimdSqrt              0      0.00%     68.64% # Class of committed instruction
system.cpu.commit.op_class_0::SimdFloatAdd            0      0.00%     68.64% # Class of committed instruction
system.cpu.commit.op_class_0::SimdFloatAlu            0      0.00%     68.64% # Class of committed instruction
system.cpu.commit.op_class_0::SimdFloatCmp            0      0.00%     68.64% # Class of committed instruction
system.cpu.commit.op_class_0::SimdFloatCvt            0      0.00%     68.64% # Class of committed instruction
system.cpu.commit.op_class_0::SimdFloatDiv            0      0.00%     68.64% # Class of committed instruction
system.cpu.commit.op_class_0::SimdFloatMisc            0      0.00%     68.64% # Class of committed instruction
system.cpu.commit.op_class_0::SimdFloatMult            0      0.00%     68.64% # Class of committed instruction
system.cpu.commit.op_class_0::SimdFloatMultAcc            0      0.00%     68.64% # Class of committed instruction
system.cpu.commit.op_class_0::SimdFloatSqrt            0      0.00%     68.64% # Class of committed instruction
system.cpu.commit.op_class_0::SimdReduceAdd            0      0.00%     68.64% # Class of committed instruction
system.cpu.commit.op_class_0::SimdReduceAlu            0      0.00%     68.64% # Class of committed instruction
system.cpu.commit.op_class_0::SimdReduceCmp            0      0.00%     68.64% # Class of committed instruction
system.cpu.commit.op_class_0::SimdFloatReduceAdd            0      0.00%     68.64% # Class of committed instruction
system.cpu.commit.op_class_0::SimdFloatReduceCmp            0      0.00%     68.64% # Class of committed instruction
system.cpu.commit.op_class_0::SimdAes               0      0.00%     68.64% # Class of committed instruction
system.cpu.commit.op_class_0::SimdAesMix            0      0.00%     68.64% # Class of committed instruction
system.cpu.commit.op_class_0::SimdSha1Hash            0      0.00%     68.64% # Class of committed instruction
system.cpu.commit.op_class_0::SimdSha1Hash2            0      0.00%     68.64% # Class of committed instruction
system.cpu.commit.op_class_0::SimdSha256Hash            0      0.00%     68.64% # Class of committed instruction
system.cpu.commit.op_class_0::SimdSha256Hash2            0      0.00%     68.64% # Class of committed instruction
system.cpu.commit.op_class_0::SimdShaSigma2            0      0.00%     68.64% # Class of committed instruction
system.cpu.commit.op_class_0::SimdShaSigma3            0      0.00%     68.64% # Class of committed instruction
system.cpu.commit.op_class_0::SimdPredAlu            0      0.00%     68.64% # Class of committed instruction
system.cpu.commit.op_class_0::MemRead            4526     12.80%     81.45% # Class of committed instruction
system.cpu.commit.op_class_0::MemWrite           6558     18.55%    100.00% # Class of committed instruction
system.cpu.commit.op_class_0::FloatMemRead            0      0.00%    100.00% # Class of committed instruction
system.cpu.commit.op_class_0::FloatMemWrite            0      0.00%    100.00% # Class of committed instruction
system.cpu.commit.op_class_0::IprAccess             0      0.00%    100.00% # Class of committed instruction
system.cpu.commit.op_class_0::InstPrefetch            0      0.00%    100.00% # Class of committed instruction
system.cpu.commit.op_class_0::total             35347                       # Class of committed instruction
system.cpu.commit.refs                          11084                       # Number of memory references committed
system.cpu.commit.swp_count                         0                       # Number of s/w prefetches committed
system.cpu.commit.vec_insts                       447                       # Number of committed Vector instructions.
system.cpu.committedInsts                       28328                       # Number of Instructions Simulated
system.cpu.committedOps                         35267                       # Number of Ops (including micro ops) Simulated
system.cpu.cpi                               4.831898                       # CPI: Cycles Per Instruction
system.cpu.cpi_total                         4.831898                       # CPI: Total CPI of All Threads
system.cpu.decode.BlockedCycles                 15996                       # Number of cycles decode is blocked
system.cpu.decode.BranchMispred                   495                       # Number of times decode detected a branch misprediction
system.cpu.decode.BranchResolved                 4570                       # Number of times decode resolved a branch
system.cpu.decode.DecodedInsts                  53814                       # Number of instructions handled by decode
system.cpu.decode.IdleCycles                    33206                       # Number of cycles decode is idle
system.cpu.decode.RunCycles                      9356                       # Number of cycles decode is running
system.cpu.decode.SquashCycles                    992                       # Number of cycles decode is squashing
system.cpu.decode.SquashedInsts                  1628                       # Number of squashed instructions handled by decode
system.cpu.decode.UnblockCycles                   612                       # Number of cycles decode is unblocking
system.cpu.dtb.accesses                             0                       # DTB accesses
system.cpu.dtb.align_faults                         0                       # Number of TLB faults due to alignment restrictions
system.cpu.dtb.domain_faults                        0                       # Number of TLB faults due to domain restrictions
system.cpu.dtb.flush_entries                        0                       # Number of entries that have been flushed from TLB
system.cpu.dtb.flush_tlb                            0                       # Number of times complete TLB was flushed
system.cpu.dtb.flush_tlb_asid                       0                       # Number of times TLB was flushed by ASID
system.cpu.dtb.flush_tlb_mva                        0                       # Number of times TLB was flushed by MVA
system.cpu.dtb.flush_tlb_mva_asid                   0                       # Number of times TLB was flushed by MVA & ASID
system.cpu.dtb.hits                                 0                       # DTB hits
system.cpu.dtb.inst_accesses                        0                       # ITB inst accesses
system.cpu.dtb.inst_hits                            0                       # ITB inst hits
system.cpu.dtb.inst_misses                          0                       # ITB inst misses
system.cpu.dtb.misses                               0                       # DTB misses
system.cpu.dtb.perms_faults                         0                       # Number of TLB faults due to permissions restrictions
system.cpu.dtb.prefetch_faults                      0                       # Number of TLB faults due to prefetch
system.cpu.dtb.read_accesses                        0                       # DTB read accesses
system.cpu.dtb.read_hits                            0                       # DTB read hits
system.cpu.dtb.read_misses                          0                       # DTB read misses
system.cpu.dtb.stage2_mmu.stage2_tlb.accesses            0                       # DTB accesses
system.cpu.dtb.stage2_mmu.stage2_tlb.align_faults            0                       # Number of TLB faults due to alignment restrictions
system.cpu.dtb.stage2_mmu.stage2_tlb.domain_faults            0                       # Number of TLB faults due to domain restrictions
system.cpu.dtb.stage2_mmu.stage2_tlb.flush_entries            0                       # Number of entries that have been flushed from TLB
system.cpu.dtb.stage2_mmu.stage2_tlb.flush_tlb            0                       # Number of times complete TLB was flushed
system.cpu.dtb.stage2_mmu.stage2_tlb.flush_tlb_asid            0                       # Number of times TLB was flushed by ASID
system.cpu.dtb.stage2_mmu.stage2_tlb.flush_tlb_mva            0                       # Number of times TLB was flushed by MVA
system.cpu.dtb.stage2_mmu.stage2_tlb.flush_tlb_mva_asid            0                       # Number of times TLB was flushed by MVA & ASID
system.cpu.dtb.stage2_mmu.stage2_tlb.hits            0                       # DTB hits
system.cpu.dtb.stage2_mmu.stage2_tlb.inst_accesses            0                       # ITB inst accesses
system.cpu.dtb.stage2_mmu.stage2_tlb.inst_hits            0                       # ITB inst hits
system.cpu.dtb.stage2_mmu.stage2_tlb.inst_misses            0                       # ITB inst misses
system.cpu.dtb.stage2_mmu.stage2_tlb.misses            0                       # DTB misses
system.cpu.dtb.stage2_mmu.stage2_tlb.perms_faults            0                       # Number of TLB faults due to permissions restrictions
system.cpu.dtb.stage2_mmu.stage2_tlb.prefetch_faults            0                       # Number of TLB faults due to prefetch
system.cpu.dtb.stage2_mmu.stage2_tlb.read_accesses            0                       # DTB read accesses
system.cpu.dtb.stage2_mmu.stage2_tlb.read_hits            0                       # DTB read hits
system.cpu.dtb.stage2_mmu.stage2_tlb.read_misses            0                       # DTB read misses
system.cpu.dtb.stage2_mmu.stage2_tlb.walker.walkRequestOrigin_Requested::Data            0                       # Table walker requests started/completed, data/inst
system.cpu.dtb.stage2_mmu.stage2_tlb.walker.walkRequestOrigin_Requested::Inst            0                       # Table walker requests started/completed, data/inst
system.cpu.dtb.stage2_mmu.stage2_tlb.walker.walkRequestOrigin_Requested::total            0                       # Table walker requests started/completed, data/inst
system.cpu.dtb.stage2_mmu.stage2_tlb.walker.walkRequestOrigin_Completed::Data            0                       # Table walker requests started/completed, data/inst
system.cpu.dtb.stage2_mmu.stage2_tlb.walker.walkRequestOrigin_Completed::Inst            0                       # Table walker requests started/completed, data/inst
system.cpu.dtb.stage2_mmu.stage2_tlb.walker.walkRequestOrigin_Completed::total            0                       # Table walker requests started/completed, data/inst
system.cpu.dtb.stage2_mmu.stage2_tlb.walker.walkRequestOrigin::total            0                       # Table walker requests started/completed, data/inst
system.cpu.dtb.stage2_mmu.stage2_tlb.walker.walks            0                       # Table walker walks requested
system.cpu.dtb.stage2_mmu.stage2_tlb.write_accesses            0                       # DTB write accesses
system.cpu.dtb.stage2_mmu.stage2_tlb.write_hits            0                       # DTB write hits
system.cpu.dtb.stage2_mmu.stage2_tlb.write_misses            0                       # DTB write misses
system.cpu.dtb.walker.walkRequestOrigin_Requested::Data            0                       # Table walker requests started/completed, data/inst
system.cpu.dtb.walker.walkRequestOrigin_Requested::Inst            0                       # Table walker requests started/completed, data/inst
system.cpu.dtb.walker.walkRequestOrigin_Requested::total            0                       # Table walker requests started/completed, data/inst
system.cpu.dtb.walker.walkRequestOrigin_Completed::Data            0                       # Table walker requests started/completed, data/inst
system.cpu.dtb.walker.walkRequestOrigin_Completed::Inst            0                       # Table walker requests started/completed, data/inst
system.cpu.dtb.walker.walkRequestOrigin_Completed::total            0                       # Table walker requests started/completed, data/inst
system.cpu.dtb.walker.walkRequestOrigin::total            0                       # Table walker requests started/completed, data/inst
system.cpu.dtb.walker.walks                         0                       # Table walker walks requested
system.cpu.dtb.write_accesses                       0                       # DTB write accesses
system.cpu.dtb.write_hits                           0                       # DTB write hits
system.cpu.dtb.write_misses                         0                       # DTB write misses
system.cpu.fetch.Branches                       12213                       # Number of branches that fetch encountered
system.cpu.fetch.CacheLines                      7030                       # Number of cache lines fetched
system.cpu.fetch.Cycles                         20977                       # Number of cycles fetch has run and was not squashing or blocked
system.cpu.fetch.IcacheSquashes                   967                       # Number of outstanding Icache misses that were squashed
system.cpu.fetch.IcacheWaitRetryStallCycles          111                       # Number of stall cycles due to full MSHR
system.cpu.fetch.Insts                          51107                       # Number of instructions fetch has processed
system.cpu.fetch.MiscStallCycles                   34                       # Number of cycles fetch has spent waiting on interrupts, or bad addresses, or out of MSHRs
system.cpu.fetch.PendingTrapStallCycles            99                       # Number of stall cycles due to pending traps
system.cpu.fetch.SquashCycles                    2942                       # Number of cycles fetch has spent squashing
system.cpu.fetch.branchRate                  0.089225                       # Number of branch fetches per cycle
system.cpu.fetch.icacheStallCycles              37470                       # Number of cycles fetch is stalled on an Icache miss
system.cpu.fetch.predictedBranches               5372                       # Number of branches that fetch has predicted taken
system.cpu.fetch.rate                        0.373376                       # Number of inst fetches per cycle
system.cpu.fetch.rateDist::samples              60162                       # Number of instructions fetched each cycle (Total)
system.cpu.fetch.rateDist::mean              1.026329                       # Number of instructions fetched each cycle (Total)
system.cpu.fetch.rateDist::stdev             2.357067                       # Number of instructions fetched each cycle (Total)
system.cpu.fetch.rateDist::underflows               0      0.00%      0.00% # Number of instructions fetched each cycle (Total)
system.cpu.fetch.rateDist::0                    48412     80.47%     80.47% # Number of instructions fetched each cycle (Total)
system.cpu.fetch.rateDist::1                     1024      1.70%     82.17% # Number of instructions fetched each cycle (Total)
system.cpu.fetch.rateDist::2                     1104      1.84%     84.01% # Number of instructions fetched each cycle (Total)
system.cpu.fetch.rateDist::3                      986      1.64%     85.65% # Number of instructions fetched each cycle (Total)
system.cpu.fetch.rateDist::4                     2255      3.75%     89.39% # Number of instructions fetched each cycle (Total)
system.cpu.fetch.rateDist::5                      859      1.43%     90.82% # Number of instructions fetched each cycle (Total)
system.cpu.fetch.rateDist::6                      680      1.13%     91.95% # Number of instructions fetched each cycle (Total)
system.cpu.fetch.rateDist::7                      575      0.96%     92.91% # Number of instructions fetched each cycle (Total)
system.cpu.fetch.rateDist::8                     4267      7.09%    100.00% # Number of instructions fetched each cycle (Total)
system.cpu.fetch.rateDist::overflows                0      0.00%    100.00% # Number of instructions fetched each cycle (Total)
system.cpu.fetch.rateDist::min_value                0                       # Number of instructions fetched each cycle (Total)
system.cpu.fetch.rateDist::max_value                8                       # Number of instructions fetched each cycle (Total)
system.cpu.fetch.rateDist::total                60162                       # Number of instructions fetched each cycle (Total)
system.cpu.icache.prefetcher.num_hwpf_issued         4740                       # number of hwpf issued
system.cpu.icache.prefetcher.pfBufferHit         4125                       # number of redundant prefetches already in prefetch queue
system.cpu.icache.prefetcher.pfIdentified        10363                       # number of prefetch candidates identified
system.cpu.icache.prefetcher.pfInCache              0                       # number of redundant prefetches already in cache/mshr dropped
system.cpu.icache.prefetcher.pfRemovedFull          965                       # number of prefetches dropped due to prefetch queue size
system.cpu.icache.prefetcher.pfSpanPage        135724                       # number of prefetches that crossed the page
system.cpu.idleCycles                           76716                       # Total number of cycles that the CPU has spent unscheduled due to idling
system.cpu.iew.branchMispredicts                 1070                       # Number of branch mispredicts detected at execute
system.cpu.iew.exec_branches                     8011                       # Number of branches executed
system.cpu.iew.exec_nop                           150                       # number of nop insts executed
system.cpu.iew.exec_rate                     0.323244                       # Inst execution rate
system.cpu.iew.exec_refs                        13956                       # number of memory reference insts executed
system.cpu.iew.exec_stores                       7464                       # Number of stores executed
system.cpu.iew.exec_swp                             0                       # number of swp insts executed
system.cpu.iew.iewBlockCycles                    1809                       # Number of cycles IEW is blocking
system.cpu.iew.iewDispLoadInsts                  6804                       # Number of dispatched load instructions
system.cpu.iew.iewDispNonSpecInsts                 67                       # Number of dispatched non-speculative instructions
system.cpu.iew.iewDispSquashedInsts               206                       # Number of squashed instructions skipped by dispatch
system.cpu.iew.iewDispStoreInsts                 8511                       # Number of dispatched store instructions
system.cpu.iew.iewDispatchedInsts               48956                       # Number of instructions dispatched to IQ
system.cpu.iew.iewExecLoadInsts                  6492                       # Number of load instructions executed
system.cpu.iew.iewExecSquashedInsts              1240                       # Number of squashed instructions skipped in execute
system.cpu.iew.iewExecutedInsts                 44245                       # Number of executed instructions
system.cpu.iew.iewIQFullEvents                     11                       # Number of times the IQ has become full, causing a stall
system.cpu.iew.iewIdleCycles                        0                       # Number of cycles IEW is idle
system.cpu.iew.iewLSQFullEvents                   806                       # Number of times the LSQ has become full, causing a stall
system.cpu.iew.iewSquashCycles                    992                       # Number of cycles IEW is squashing
system.cpu.iew.iewUnblockCycles                   810                       # Number of cycles IEW is unblocking
system.cpu.iew.lsq.thread0.blockedLoads             0                       # Number of blocked loads due to partial load-store forwarding
system.cpu.iew.lsq.thread0.cacheBlocked            94                       # Number of times an access to memory failed due to the cache being blocked
system.cpu.iew.lsq.thread0.forwLoads               91                       # Number of loads that had data forwarded from stores
system.cpu.iew.lsq.thread0.ignoredResponses            4                       # Number of memory responses ignored because the instruction is squashed
system.cpu.iew.lsq.thread0.invAddrLoads             0                       # Number of loads ignored due to an invalid address
system.cpu.iew.lsq.thread0.invAddrSwpfs             0                       # Number of software prefetches ignored due to an invalid address
system.cpu.iew.lsq.thread0.memOrderViolation           15                       # Number of memory ordering violations
system.cpu.iew.lsq.thread0.rescheduledLoads          110                       # Number of loads that were rescheduled
system.cpu.iew.lsq.thread0.squashedLoads         2278                       # Number of loads squashed
system.cpu.iew.lsq.thread0.squashedStores         1953                       # Number of stores squashed
system.cpu.iew.memOrderViolationEvents             15                       # Number of memory order violations
system.cpu.iew.predictedNotTakenIncorrect          934                       # Number of branches that were predicted not taken incorrectly
system.cpu.iew.predictedTakenIncorrect            136                       # Number of branches that were predicted taken incorrectly
system.cpu.iew.wb_consumers                     39158                       # num instructions consuming a value
system.cpu.iew.wb_count                         42631                       # cumulative count of insts written-back
system.cpu.iew.wb_fanout                     0.533071                       # average fanout of values written-back
system.cpu.iew.wb_producers                     20874                       # num instructions producing a value
system.cpu.iew.wb_rate                       0.311453                       # insts written-back per cycle
system.cpu.iew.wb_sent                          43346                       # cumulative count of insts sent to commit
system.cpu.int_regfile_reads                    49967                       # number of integer regfile reads
system.cpu.int_regfile_writes                   29475                       # number of integer regfile writes
system.cpu.ipc                               0.206958                       # IPC: Instructions Per Cycle
system.cpu.ipc_total                         0.206958                       # IPC: Total IPC of All Threads
system.cpu.iq.FU_type_0::No_OpClass                25      0.05%      0.05% # Type of FU issued
system.cpu.iq.FU_type_0::IntAlu                 30719     67.54%     67.59% # Type of FU issued
system.cpu.iq.FU_type_0::IntMult                   45      0.10%     67.69% # Type of FU issued
system.cpu.iq.FU_type_0::IntDiv                     2      0.00%     67.69% # Type of FU issued
system.cpu.iq.FU_type_0::FloatAdd                   0      0.00%     67.69% # Type of FU issued
system.cpu.iq.FU_type_0::FloatCmp                   0      0.00%     67.69% # Type of FU issued
system.cpu.iq.FU_type_0::FloatCvt                   0      0.00%     67.69% # Type of FU issued
system.cpu.iq.FU_type_0::FloatMult                  0      0.00%     67.69% # Type of FU issued
system.cpu.iq.FU_type_0::FloatMultAcc               0      0.00%     67.69% # Type of FU issued
system.cpu.iq.FU_type_0::FloatDiv                   0      0.00%     67.69% # Type of FU issued
system.cpu.iq.FU_type_0::FloatMisc                  0      0.00%     67.69% # Type of FU issued
system.cpu.iq.FU_type_0::FloatSqrt                  0      0.00%     67.69% # Type of FU issued
system.cpu.iq.FU_type_0::SimdAdd                   30      0.07%     67.76% # Type of FU issued
system.cpu.iq.FU_type_0::SimdAddAcc                 0      0.00%     67.76% # Type of FU issued
system.cpu.iq.FU_type_0::SimdAlu                   32      0.07%     67.83% # Type of FU issued
system.cpu.iq.FU_type_0::SimdCmp                   34      0.07%     67.91% # Type of FU issued
system.cpu.iq.FU_type_0::SimdCvt                    0      0.00%     67.91% # Type of FU issued
system.cpu.iq.FU_type_0::SimdMisc                  37      0.08%     67.99% # Type of FU issued
system.cpu.iq.FU_type_0::SimdMult                   0      0.00%     67.99% # Type of FU issued
system.cpu.iq.FU_type_0::SimdMultAcc                0      0.00%     67.99% # Type of FU issued
system.cpu.iq.FU_type_0::SimdShift                  0      0.00%     67.99% # Type of FU issued
system.cpu.iq.FU_type_0::SimdShiftAcc               0      0.00%     67.99% # Type of FU issued
system.cpu.iq.FU_type_0::SimdDiv                    0      0.00%     67.99% # Type of FU issued
system.cpu.iq.FU_type_0::SimdSqrt                   0      0.00%     67.99% # Type of FU issued
system.cpu.iq.FU_type_0::SimdFloatAdd               0      0.00%     67.99% # Type of FU issued
system.cpu.iq.FU_type_0::SimdFloatAlu               0      0.00%     67.99% # Type of FU issued
system.cpu.iq.FU_type_0::SimdFloatCmp               0      0.00%     67.99% # Type of FU issued
system.cpu.iq.FU_type_0::SimdFloatCvt               0      0.00%     67.99% # Type of FU issued
system.cpu.iq.FU_type_0::SimdFloatDiv               0      0.00%     67.99% # Type of FU issued
system.cpu.iq.FU_type_0::SimdFloatMisc              0      0.00%     67.99% # Type of FU issued
system.cpu.iq.FU_type_0::SimdFloatMult              0      0.00%     67.99% # Type of FU issued
system.cpu.iq.FU_type_0::SimdFloatMultAcc            0      0.00%     67.99% # Type of FU issued
system.cpu.iq.FU_type_0::SimdFloatSqrt              0      0.00%     67.99% # Type of FU issued
system.cpu.iq.FU_type_0::SimdReduceAdd              0      0.00%     67.99% # Type of FU issued
system.cpu.iq.FU_type_0::SimdReduceAlu              0      0.00%     67.99% # Type of FU issued
system.cpu.iq.FU_type_0::SimdReduceCmp              0      0.00%     67.99% # Type of FU issued
system.cpu.iq.FU_type_0::SimdFloatReduceAdd            0      0.00%     67.99% # Type of FU issued
system.cpu.iq.FU_type_0::SimdFloatReduceCmp            0      0.00%     67.99% # Type of FU issued
system.cpu.iq.FU_type_0::SimdAes                    0      0.00%     67.99% # Type of FU issued
system.cpu.iq.FU_type_0::SimdAesMix                 0      0.00%     67.99% # Type of FU issued
system.cpu.iq.FU_type_0::SimdSha1Hash               0      0.00%     67.99% # Type of FU issued
system.cpu.iq.FU_type_0::SimdSha1Hash2              0      0.00%     67.99% # Type of FU issued
system.cpu.iq.FU_type_0::SimdSha256Hash             0      0.00%     67.99% # Type of FU issued
system.cpu.iq.FU_type_0::SimdSha256Hash2            0      0.00%     67.99% # Type of FU issued
system.cpu.iq.FU_type_0::SimdShaSigma2              0      0.00%     67.99% # Type of FU issued
system.cpu.iq.FU_type_0::SimdShaSigma3              0      0.00%     67.99% # Type of FU issued
system.cpu.iq.FU_type_0::SimdPredAlu                0      0.00%     67.99% # Type of FU issued
system.cpu.iq.FU_type_0::MemRead                 6747     14.83%     82.82% # Type of FU issued
system.cpu.iq.FU_type_0::MemWrite                7814     17.18%    100.00% # Type of FU issued
system.cpu.iq.FU_type_0::FloatMemRead               0      0.00%    100.00% # Type of FU issued
system.cpu.iq.FU_type_0::FloatMemWrite              0      0.00%    100.00% # Type of FU issued
system.cpu.iq.FU_type_0::IprAccess                  0      0.00%    100.00% # Type of FU issued
system.cpu.iq.FU_type_0::InstPrefetch               0      0.00%    100.00% # Type of FU issued
system.cpu.iq.FU_type_0::total                  45485                       # Type of FU issued
system.cpu.iq.fp_alu_accesses                       0                       # Number of floating point alu accesses
system.cpu.iq.fp_inst_queue_reads                   0                       # Number of floating instruction queue reads
system.cpu.iq.fp_inst_queue_wakeup_accesses            0                       # Number of floating instruction queue wakeup accesses
system.cpu.iq.fp_inst_queue_writes                  0                       # Number of floating instruction queue writes
system.cpu.iq.fu_busy_cnt                         584                       # FU busy when requested
system.cpu.iq.fu_busy_rate                   0.012839                       # FU busy rate (busy events/executed inst)
system.cpu.iq.fu_full::No_OpClass                   0      0.00%      0.00% # attempts to use FU when none available
system.cpu.iq.fu_full::IntAlu                     176     30.14%     30.14% # attempts to use FU when none available
system.cpu.iq.fu_full::IntMult                      0      0.00%     30.14% # attempts to use FU when none available
system.cpu.iq.fu_full::IntDiv                       0      0.00%     30.14% # attempts to use FU when none available
system.cpu.iq.fu_full::FloatAdd                     0      0.00%     30.14% # attempts to use FU when none available
system.cpu.iq.fu_full::FloatCmp                     0      0.00%     30.14% # attempts to use FU when none available
system.cpu.iq.fu_full::FloatCvt                     0      0.00%     30.14% # attempts to use FU when none available
system.cpu.iq.fu_full::FloatMult                    0      0.00%     30.14% # attempts to use FU when none available
system.cpu.iq.fu_full::FloatMultAcc                 0      0.00%     30.14% # attempts to use FU when none available
system.cpu.iq.fu_full::FloatDiv                     0      0.00%     30.14% # attempts to use FU when none available
system.cpu.iq.fu_full::FloatMisc                    0      0.00%     30.14% # attempts to use FU when none available
system.cpu.iq.fu_full::FloatSqrt                    0      0.00%     30.14% # attempts to use FU when none available
system.cpu.iq.fu_full::SimdAdd                      0      0.00%     30.14% # attempts to use FU when none available
system.cpu.iq.fu_full::SimdAddAcc                   0      0.00%     30.14% # attempts to use FU when none available
system.cpu.iq.fu_full::SimdAlu                      1      0.17%     30.31% # attempts to use FU when none available
system.cpu.iq.fu_full::SimdCmp                      2      0.34%     30.65% # attempts to use FU when none available
system.cpu.iq.fu_full::SimdCvt                      0      0.00%     30.65% # attempts to use FU when none available
system.cpu.iq.fu_full::SimdMisc                     0      0.00%     30.65% # attempts to use FU when none available
system.cpu.iq.fu_full::SimdMult                     0      0.00%     30.65% # attempts to use FU when none available
system.cpu.iq.fu_full::SimdMultAcc                  0      0.00%     30.65% # attempts to use FU when none available
system.cpu.iq.fu_full::SimdShift                    0      0.00%     30.65% # attempts to use FU when none available
system.cpu.iq.fu_full::SimdShiftAcc                 0      0.00%     30.65% # attempts to use FU when none available
system.cpu.iq.fu_full::SimdDiv                      0      0.00%     30.65% # attempts to use FU when none available
system.cpu.iq.fu_full::SimdSqrt                     0      0.00%     30.65% # attempts to use FU when none available
system.cpu.iq.fu_full::SimdFloatAdd                 0      0.00%     30.65% # attempts to use FU when none available
system.cpu.iq.fu_full::SimdFloatAlu                 0      0.00%     30.65% # attempts to use FU when none available
system.cpu.iq.fu_full::SimdFloatCmp                 0      0.00%     30.65% # attempts to use FU when none available
system.cpu.iq.fu_full::SimdFloatCvt                 0      0.00%     30.65% # attempts to use FU when none available
system.cpu.iq.fu_full::SimdFloatDiv                 0      0.00%     30.65% # attempts to use FU when none available
system.cpu.iq.fu_full::SimdFloatMisc                0      0.00%     30.65% # attempts to use FU when none available
system.cpu.iq.fu_full::SimdFloatMult                0      0.00%     30.65% # attempts to use FU when none available
system.cpu.iq.fu_full::SimdFloatMultAcc             0      0.00%     30.65% # attempts to use FU when none available
system.cpu.iq.fu_full::SimdFloatSqrt                0      0.00%     30.65% # attempts to use FU when none available
system.cpu.iq.fu_full::SimdReduceAdd                0      0.00%     30.65% # attempts to use FU when none available
system.cpu.iq.fu_full::SimdReduceAlu                0      0.00%     30.65% # attempts to use FU when none available
system.cpu.iq.fu_full::SimdReduceCmp                0      0.00%     30.65% # attempts to use FU when none available
system.cpu.iq.fu_full::SimdFloatReduceAdd            0      0.00%     30.65% # attempts to use FU when none available
system.cpu.iq.fu_full::SimdFloatReduceCmp            0      0.00%     30.65% # attempts to use FU when none available
system.cpu.iq.fu_full::SimdAes                      0      0.00%     30.65% # attempts to use FU when none available
system.cpu.iq.fu_full::SimdAesMix                   0      0.00%     30.65% # attempts to use FU when none available
system.cpu.iq.fu_full::SimdSha1Hash                 0      0.00%     30.65% # attempts to use FU when none available
system.cpu.iq.fu_full::SimdSha1Hash2                0      0.00%     30.65% # attempts to use FU when none available
system.cpu.iq.fu_full::SimdSha256Hash               0      0.00%     30.65% # attempts to use FU when none available
system.cpu.iq.fu_full::SimdSha256Hash2              0      0.00%     30.65% # attempts to use FU when none available
system.cpu.iq.fu_full::SimdShaSigma2                0      0.00%     30.65% # attempts to use FU when none available
system.cpu.iq.fu_full::SimdShaSigma3                0      0.00%     30.65% # attempts to use FU when none available
system.cpu.iq.fu_full::SimdPredAlu                  0      0.00%     30.65% # attempts to use FU when none available
system.cpu.iq.fu_full::MemRead                    170     29.11%     59.76% # attempts to use FU when none available
system.cpu.iq.fu_full::MemWrite                   235     40.24%    100.00% # attempts to use FU when none available
system.cpu.iq.fu_full::FloatMemRead                 0      0.00%    100.00% # attempts to use FU when none available
system.cpu.iq.fu_full::FloatMemWrite                0      0.00%    100.00% # attempts to use FU when none available
system.cpu.iq.fu_full::IprAccess                    0      0.00%    100.00% # attempts to use FU when none available
system.cpu.iq.fu_full::InstPrefetch                 0      0.00%    100.00% # attempts to use FU when none available
system.cpu.iq.int_alu_accesses                  45266                       # Number of integer alu accesses
system.cpu.iq.int_inst_queue_reads             150315                       # Number of integer instruction queue reads
system.cpu.iq.int_inst_queue_wakeup_accesses        42034                       # Number of integer instruction queue wakeup accesses
system.cpu.iq.int_inst_queue_writes             60888                       # Number of integer instruction queue writes
system.cpu.iq.iqInstsAdded                      48739                       # Number of instructions added to the IQ (excludes non-spec)
system.cpu.iq.iqInstsIssued                     45485                       # Number of instructions issued
system.cpu.iq.iqNonSpecInstsAdded                  67                       # Number of non-speculative instructions added to the IQ
system.cpu.iq.iqSquashedInstsExamined           13538                       # Number of squashed instructions iterated over during squash; mainly for profiling
system.cpu.iq.iqSquashedInstsIssued               251                       # Number of squashed instructions issued
system.cpu.iq.iqSquashedNonSpecRemoved             20                       # Number of squashed non-spec instructions that were removed
system.cpu.iq.iqSquashedOperandsExamined         9135                       # Number of squashed operands that are examined and possibly removed from graph
system.cpu.iq.issued_per_cycle::samples         60162                       # Number of insts issued each cycle
system.cpu.iq.issued_per_cycle::mean         0.756042                       # Number of insts issued each cycle
system.cpu.iq.issued_per_cycle::stdev        1.577507                       # Number of insts issued each cycle
system.cpu.iq.issued_per_cycle::underflows            0      0.00%      0.00% # Number of insts issued each cycle
system.cpu.iq.issued_per_cycle::0               44853     74.55%     74.55% # Number of insts issued each cycle
system.cpu.iq.issued_per_cycle::1                4092      6.80%     81.36% # Number of insts issued each cycle
system.cpu.iq.issued_per_cycle::2                3267      5.43%     86.79% # Number of insts issued each cycle
system.cpu.iq.issued_per_cycle::3                2329      3.87%     90.66% # Number of insts issued each cycle
system.cpu.iq.issued_per_cycle::4                2725      4.53%     95.19% # Number of insts issued each cycle
system.cpu.iq.issued_per_cycle::5                1379      2.29%     97.48% # Number of insts issued each cycle
system.cpu.iq.issued_per_cycle::6                 851      1.41%     98.89% # Number of insts issued each cycle
system.cpu.iq.issued_per_cycle::7                 357      0.59%     99.49% # Number of insts issued each cycle
system.cpu.iq.issued_per_cycle::8                 309      0.51%    100.00% # Number of insts issued each cycle
system.cpu.iq.issued_per_cycle::overflows            0      0.00%    100.00% # Number of insts issued each cycle
system.cpu.iq.issued_per_cycle::min_value            0                       # Number of insts issued each cycle
system.cpu.iq.issued_per_cycle::max_value            8                       # Number of insts issued each cycle
system.cpu.iq.issued_per_cycle::total           60162                       # Number of insts issued each cycle
system.cpu.iq.rate                           0.332303                       # Inst issue rate
system.cpu.iq.vec_alu_accesses                    778                       # Number of vector alu accesses
system.cpu.iq.vec_inst_queue_reads               1652                       # Number of vector instruction queue reads
system.cpu.iq.vec_inst_queue_wakeup_accesses          597                       # Number of vector instruction queue wakeup accesses
system.cpu.iq.vec_inst_queue_writes              1471                       # Number of vector instruction queue writes
system.cpu.itb.accesses                             0                       # DTB accesses
system.cpu.itb.align_faults                         0                       # Number of TLB faults due to alignment restrictions
system.cpu.itb.domain_faults                        0                       # Number of TLB faults due to domain restrictions
system.cpu.itb.flush_entries                        0                       # Number of entries that have been flushed from TLB
system.cpu.itb.flush_tlb                            0                       # Number of times complete TLB was flushed
system.cpu.itb.flush_tlb_asid                       0                       # Number of times TLB was flushed by ASID
system.cpu.itb.flush_tlb_mva                        0                       # Number of times TLB was flushed by MVA
system.cpu.itb.flush_tlb_mva_asid                   0                       # Number of times TLB was flushed by MVA & ASID
system.cpu.itb.hits                                 0                       # DTB hits
system.cpu.itb.inst_accesses                        0                       # ITB inst accesses
system.cpu.itb.inst_hits                            0                       # ITB inst hits
system.cpu.itb.inst_misses                          0                       # ITB inst misses
system.cpu.itb.misses                               0                       # DTB misses
system.cpu.itb.perms_faults                         0                       # Number of TLB faults due to permissions restrictions
system.cpu.itb.prefetch_faults                      0                       # Number of TLB faults due to prefetch
system.cpu.itb.read_accesses                        0                       # DTB read accesses
system.cpu.itb.read_hits                            0                       # DTB read hits
system.cpu.itb.read_misses                          0                       # DTB read misses
system.cpu.itb.stage2_mmu.stage2_tlb.accesses            0                       # DTB accesses
system.cpu.itb.stage2_mmu.stage2_tlb.align_faults            0                       # Number of TLB faults due to alignment restrictions
system.cpu.itb.stage2_mmu.stage2_tlb.domain_faults            0                       # Number of TLB faults due to domain restrictions
system.cpu.itb.stage2_mmu.stage2_tlb.flush_entries            0                       # Number of entries that have been flushed from TLB
system.cpu.itb.stage2_mmu.stage2_tlb.flush_tlb            0                       # Number of times complete TLB was flushed
system.cpu.itb.stage2_mmu.stage2_tlb.flush_tlb_asid            0                       # Number of times TLB was flushed by ASID
system.cpu.itb.stage2_mmu.stage2_tlb.flush_tlb_mva            0                       # Number of times TLB was flushed by MVA
system.cpu.itb.stage2_mmu.stage2_tlb.flush_tlb_mva_asid            0                       # Number of times TLB was flushed by MVA & ASID
system.cpu.itb.stage2_mmu.stage2_tlb.hits            0                       # DTB hits
system.cpu.itb.stage2_mmu.stage2_tlb.inst_accesses            0                       # ITB inst accesses
system.cpu.itb.stage2_mmu.stage2_tlb.inst_hits            0                       # ITB inst hits
system.cpu.itb.stage2_mmu.stage2_tlb.inst_misses            0                       # ITB inst misses
system.cpu.itb.stage2_mmu.stage2_tlb.misses            0                       # DTB misses
system.cpu.itb.stage2_mmu.stage2_tlb.perms_faults            0                       # Number of TLB faults due to permissions restrictions
system.cpu.itb.stage2_mmu.stage2_tlb.prefetch_faults            0                       # Number of TLB faults due to prefetch
system.cpu.itb.stage2_mmu.stage2_tlb.read_accesses            0                       # DTB read accesses
system.cpu.itb.stage2_mmu.stage2_tlb.read_hits            0                       # DTB read hits
system.cpu.itb.stage2_mmu.stage2_tlb.read_misses            0                       # DTB read misses
system.cpu.itb.stage2_mmu.stage2_tlb.walker.walkRequestOrigin_Requested::Data            0                       # Table walker requests started/completed, data/inst
system.cpu.itb.stage2_mmu.stage2_tlb.walker.walkRequestOrigin_Requested::Inst            0                       # Table walker requests started/completed, data/inst
system.cpu.itb.stage2_mmu.stage2_tlb.walker.walkRequestOrigin_Requested::total            0                       # Table walker requests started/completed, data/inst
system.cpu.itb.stage2_mmu.stage2_tlb.walker.walkRequestOrigin_Completed::Data            0                       # Table walker requests started/completed, data/inst
system.cpu.itb.stage2_mmu.stage2_tlb.walker.walkRequestOrigin_Completed::Inst            0                       # Table walker requests started/completed, data/inst
system.cpu.itb.stage2_mmu.stage2_tlb.walker.walkRequestOrigin_Completed::total            0                       # Table walker requests started/completed, data/inst
system.cpu.itb.stage2_mmu.stage2_tlb.walker.walkRequestOrigin::total            0                       # Table walker requests started/completed, data/inst
system.cpu.itb.stage2_mmu.stage2_tlb.walker.walks            0                       # Table walker walks requested
system.cpu.itb.stage2_mmu.stage2_tlb.write_accesses            0                       # DTB write accesses
system.cpu.itb.stage2_mmu.stage2_tlb.write_hits            0                       # DTB write hits
system.cpu.itb.stage2_mmu.stage2_tlb.write_misses            0                       # DTB write misses
system.cpu.itb.walker.walkRequestOrigin_Requested::Data            0                       # Table walker requests started/completed, data/inst
system.cpu.itb.walker.walkRequestOrigin_Requested::Inst            0                       # Table walker requests started/completed, data/inst
system.cpu.itb.walker.walkRequestOrigin_Requested::total            0                       # Table walker requests started/completed, data/inst
system.cpu.itb.walker.walkRequestOrigin_Completed::Data            0                       # Table walker requests started/completed, data/inst
system.cpu.itb.walker.walkRequestOrigin_Completed::Inst            0                       # Table walker requests started/completed, data/inst
system.cpu.itb.walker.walkRequestOrigin_Completed::total            0                       # Table walker requests started/completed, data/inst
system.cpu.itb.walker.walkRequestOrigin::total            0                       # Table walker requests started/completed, data/inst
system.cpu.itb.walker.walks                         0                       # Table walker walks requested
system.cpu.itb.write_accesses                       0                       # DTB write accesses
system.cpu.itb.write_hits                           0                       # DTB write hits
system.cpu.itb.write_misses                         0                       # DTB write misses
system.cpu.memDep0.conflictingLoads                15                       # Number of conflicting loads.
system.cpu.memDep0.conflictingStores               26                       # Number of conflicting stores.
system.cpu.memDep0.insertedLoads                 6804                       # Number of loads inserted to the mem dependence unit.
system.cpu.memDep0.insertedStores                8511                       # Number of stores inserted to the mem dependence unit.
system.cpu.misc_regfile_reads                   34497                       # number of misc regfile reads
system.cpu.misc_regfile_writes                     81                       # number of misc regfile writes
system.cpu.numCycles                           136878                       # number of cpu cycles simulated
system.cpu.numWorkItemsCompleted                    0                       # number of work items this cpu completed
system.cpu.numWorkItemsStarted                      0                       # number of work items this cpu started
system.cpu.rename.BlockCycles                    2790                       # Number of cycles rename is blocking
system.cpu.rename.CommittedMaps                 34401                       # Number of HB maps that are committed
system.cpu.rename.IQFullEvents                     60                       # Number of times rename has blocked due to IQ full
system.cpu.rename.IdleCycles                    34069                       # Number of cycles rename is idle
system.cpu.rename.LQFullEvents                    213                       # Number of times rename has blocked due to LQ full
system.cpu.rename.ROBFullEvents                    14                       # Number of times rename has blocked due to ROB full
system.cpu.rename.RenameLookups                 77354                       # Number of register rename lookups that rename has made
system.cpu.rename.RenamedInsts                  51623                       # Number of instructions processed by rename
system.cpu.rename.RenamedOperands               49410                       # Number of destination operands rename has renamed
system.cpu.rename.RunCycles                      9057                       # Number of cycles rename is running
system.cpu.rename.SQFullEvents                   5044                       # Number of times rename has blocked due to SQ full
system.cpu.rename.SquashCycles                    992                       # Number of cycles rename is squashing
system.cpu.rename.UnblockCycles                  5642                       # Number of cycles rename is unblocking
system.cpu.rename.UndoneMaps                    15009                       # Number of HB maps that are undone due to squashing
system.cpu.rename.int_rename_lookups            58150                       # Number of integer rename lookups
system.cpu.rename.serializeStallCycles           7612                       # count of cycles rename stalled for serializing inst
system.cpu.rename.serializingInsts                279                       # count of serializing insts renamed
system.cpu.rename.skidInsts                      3676                       # count of insts added to the skid buffer
system.cpu.rename.tempSerializingInsts             68                       # count of temporary serializing insts renamed
system.cpu.rename.vec_rename_lookups             1085                       # Number of vector rename lookups
system.cpu.rob.rob_reads                       105257                       # The number of ROB reads
system.cpu.rob.rob_writes                      100214                       # The number of ROB writes
system.cpu.timesIdled                            1142                       # Number of times that the entire CPU went into an idle state and unscheduled itself
system.cpu.vec_regfile_reads                      653                       # number of vector regfile reads
system.cpu.vec_regfile_writes                     156                       # number of vector regfile writes
system.cpu.workload.numSyscalls                    26                       # Number of system calls
system.membus.snoop_filter.hit_multi_requests            0                       # Number of requests hitting in the snoop filter with multiple (>1) holders of the requested data.
system.membus.snoop_filter.hit_multi_snoops            0                       # Number of snoops hitting in the snoop filter with multiple (>1) holders of the requested data.
system.membus.snoop_filter.hit_single_requests            0                       # Number of requests hitting in the snoop filter with a single holder of the requested data.
system.membus.snoop_filter.hit_single_snoops            0                       # Number of snoops hitting in the snoop filter with a single holder of the requested data.
system.membus.snoop_filter.tot_requests          1336                       # Total number of requests made to the snoop filter.
system.membus.snoop_filter.tot_snoops               0                       # Total number of snoops made to the snoop filter.
system.tol2bus.snoop_filter.hit_multi_requests           21                       # Number of requests hitting in the snoop filter with multiple (>1) holders of the requested data.
system.tol2bus.snoop_filter.hit_multi_snoops            0                       # Number of snoops hitting in the snoop filter with multiple (>1) holders of the requested data.
system.tol2bus.snoop_filter.hit_single_requests         3323                       # Number of requests hitting in the snoop filter with a single holder of the requested data.
system.tol2bus.snoop_filter.hit_single_snoops            0                       # Number of snoops hitting in the snoop filter with a single holder of the requested data.
system.tol2bus.snoop_filter.tot_requests         7177                       # Total number of requests made to the snoop filter.
system.tol2bus.snoop_filter.tot_snoops              0                       # Total number of snoops made to the snoop filter.
system.membus.trans_dist::ReadResp               1028                       # Transaction distribution
system.membus.trans_dist::ReadExReq               245                       # Transaction distribution
system.membus.trans_dist::ReadExResp              245                       # Transaction distribution
system.membus.trans_dist::ReadSharedReq          1028                       # Transaction distribution
system.membus.trans_dist::InvalidateReq            63                       # Transaction distribution
system.membus.pkt_count_system.l2.mem_side::system.mem_ctrls.port         2609                       # Packet count per connected master and slave (bytes)
system.membus.pkt_count::total                   2609                       # Packet count per connected master and slave (bytes)
system.membus.pkt_size_system.l2.mem_side::system.mem_ctrls.port        81472                       # Cumulative packet size per connected master and slave (bytes)
system.membus.pkt_size::total                   81472                       # Cumulative packet size per connected master and slave (bytes)
system.membus.snoops                                0                       # Total snoops (count)
system.membus.snoopTraffic                          0                       # Total snoop traffic (bytes)
system.membus.snoop_fanout::samples              1336                       # Request fanout histogram
system.membus.snoop_fanout::mean                    0                       # Request fanout histogram
system.membus.snoop_fanout::stdev                   0                       # Request fanout histogram
system.membus.snoop_fanout::underflows              0      0.00%      0.00% # Request fanout histogram
system.membus.snoop_fanout::0                    1336    100.00%    100.00% # Request fanout histogram
system.membus.snoop_fanout::1                       0      0.00%    100.00% # Request fanout histogram
system.membus.snoop_fanout::overflows               0      0.00%    100.00% # Request fanout histogram
system.membus.snoop_fanout::min_value               0                       # Request fanout histogram
system.membus.snoop_fanout::max_value               0                       # Request fanout histogram
system.membus.snoop_fanout::total                1336                       # Request fanout histogram
system.membus.reqLayer0.occupancy             1656000                       # Layer occupancy (ticks)
system.membus.reqLayer0.utilization               2.4                       # Layer utilization (%)
system.membus.respLayer1.occupancy            6745500                       # Layer occupancy (ticks)
system.membus.respLayer1.utilization              9.9                       # Layer utilization (%)
system.membus.power_state.pwrStateResidencyTicks::UNDEFINED     68438500                       # Cumulative time (in ticks) in various power states
system.tol2bus.trans_dist::ReadResp              3545                       # Transaction distribution
system.tol2bus.trans_dist::WritebackDirty           18                       # Transaction distribution
system.tol2bus.trans_dist::WritebackClean         3296                       # Transaction distribution
system.tol2bus.trans_dist::CleanEvict               9                       # Transaction distribution
system.tol2bus.trans_dist::ReadExReq              245                       # Transaction distribution
system.tol2bus.trans_dist::ReadExResp             245                       # Transaction distribution
system.tol2bus.trans_dist::ReadCleanReq          3362                       # Transaction distribution
system.tol2bus.trans_dist::ReadSharedReq          184                       # Transaction distribution
system.tol2bus.trans_dist::InvalidateReq           63                       # Transaction distribution
system.tol2bus.trans_dist::InvalidateResp           63                       # Transaction distribution
system.tol2bus.pkt_count_system.cpu.icache.mem_side::system.l2.cpu_side        10019                       # Packet count per connected master and slave (bytes)
system.tol2bus.pkt_count_system.cpu.dcache.mem_side::system.l2.cpu_side         1011                       # Packet count per connected master and slave (bytes)
system.tol2bus.pkt_count::total                 11030                       # Packet count per connected master and slave (bytes)
system.tol2bus.pkt_size_system.cpu.icache.mem_side::system.l2.cpu_side       426048                       # Cumulative packet size per connected master and slave (bytes)
system.tol2bus.pkt_size_system.cpu.dcache.mem_side::system.l2.cpu_side        28608                       # Cumulative packet size per connected master and slave (bytes)
system.tol2bus.pkt_size::total                 454656                       # Cumulative packet size per connected master and slave (bytes)
system.tol2bus.snoops                               0                       # Total snoops (count)
system.tol2bus.snoopTraffic                         0                       # Total snoop traffic (bytes)
system.tol2bus.snoop_fanout::samples             3854                       # Request fanout histogram
system.tol2bus.snoop_fanout::mean            0.005449                       # Request fanout histogram
system.tol2bus.snoop_fanout::stdev           0.073625                       # Request fanout histogram
system.tol2bus.snoop_fanout::underflows             0      0.00%      0.00% # Request fanout histogram
system.tol2bus.snoop_fanout::0                   3833     99.46%     99.46% # Request fanout histogram
system.tol2bus.snoop_fanout::1                     21      0.54%    100.00% # Request fanout histogram
system.tol2bus.snoop_fanout::2                      0      0.00%    100.00% # Request fanout histogram
system.tol2bus.snoop_fanout::overflows              0      0.00%    100.00% # Request fanout histogram
system.tol2bus.snoop_fanout::min_value              0                       # Request fanout histogram
system.tol2bus.snoop_fanout::max_value              1                       # Request fanout histogram
system.tol2bus.snoop_fanout::total               3854                       # Request fanout histogram
system.tol2bus.reqLayer0.occupancy            7451013                       # Layer occupancy (ticks)
system.tol2bus.reqLayer0.utilization             10.9                       # Layer utilization (%)
system.tol2bus.respLayer1.occupancy            675998                       # Layer occupancy (ticks)
system.tol2bus.respLayer1.utilization             1.0                       # Layer utilization (%)
system.tol2bus.respLayer0.occupancy           5041500                       # Layer occupancy (ticks)
system.tol2bus.respLayer0.utilization             7.4                       # Layer utilization (%)
system.tol2bus.power_state.pwrStateResidencyTicks::UNDEFINED     68438500                       # Cumulative time (in ticks) in various power states
system.voltage_domain.voltage                       1                       # Voltage in Volts
system.clk_domain.clock                          1000                       # Clock period in ticks
system.l2.demand_hits::.cpu.inst                  757                       # number of demand (read+write) hits
system.l2.demand_hits::.cpu.data                    6                       # number of demand (read+write) hits
system.l2.demand_hits::.cpu.icache.prefetcher         1754                       # number of demand (read+write) hits
system.l2.demand_hits::total                     2517                       # number of demand (read+write) hits
system.l2.overall_hits::.cpu.inst                 757                       # number of overall hits
system.l2.overall_hits::.cpu.data                   6                       # number of overall hits
system.l2.overall_hits::.cpu.icache.prefetcher         1754                       # number of overall hits
system.l2.overall_hits::total                    2517                       # number of overall hits
system.l2.demand_misses::.cpu.inst                851                       # number of demand (read+write) misses
system.l2.demand_misses::.cpu.data                423                       # number of demand (read+write) misses
system.l2.demand_misses::total                   1274                       # number of demand (read+write) misses
system.l2.overall_misses::.cpu.inst               851                       # number of overall misses
system.l2.overall_misses::.cpu.data               423                       # number of overall misses
system.l2.overall_misses::total                  1274                       # number of overall misses
system.l2.demand_miss_latency::.cpu.inst     66911500                       # number of demand (read+write) miss cycles
system.l2.demand_miss_latency::.cpu.data     35436500                       # number of demand (read+write) miss cycles
system.l2.demand_miss_latency::total        102348000                       # number of demand (read+write) miss cycles
system.l2.overall_miss_latency::.cpu.inst     66911500                       # number of overall miss cycles
system.l2.overall_miss_latency::.cpu.data     35436500                       # number of overall miss cycles
system.l2.overall_miss_latency::total       102348000                       # number of overall miss cycles
system.l2.demand_accesses::.cpu.inst             1608                       # number of demand (read+write) accesses
system.l2.demand_accesses::.cpu.data              429                       # number of demand (read+write) accesses
system.l2.demand_accesses::.cpu.icache.prefetcher         1754                       # number of demand (read+write) accesses
system.l2.demand_accesses::total                 3791                       # number of demand (read+write) accesses
system.l2.overall_accesses::.cpu.inst            1608                       # number of overall (read+write) accesses
system.l2.overall_accesses::.cpu.data             429                       # number of overall (read+write) accesses
system.l2.overall_accesses::.cpu.icache.prefetcher         1754                       # number of overall (read+write) accesses
system.l2.overall_accesses::total                3791                       # number of overall (read+write) accesses
system.l2.demand_miss_rate::.cpu.inst        0.529229                       # miss rate for demand accesses
system.l2.demand_miss_rate::.cpu.data        0.986014                       # miss rate for demand accesses
system.l2.demand_miss_rate::total            0.336059                       # miss rate for demand accesses
system.l2.overall_miss_rate::.cpu.inst       0.529229                       # miss rate for overall accesses
system.l2.overall_miss_rate::.cpu.data       0.986014                       # miss rate for overall accesses
system.l2.overall_miss_rate::total           0.336059                       # miss rate for overall accesses
system.l2.demand_avg_miss_latency::.cpu.inst 78626.909518                       # average overall miss latency
system.l2.demand_avg_miss_latency::.cpu.data 83774.231678                       # average overall miss latency
system.l2.demand_avg_miss_latency::total 80335.949765                       # average overall miss latency
system.l2.overall_avg_miss_latency::.cpu.inst 78626.909518                       # average overall miss latency
system.l2.overall_avg_miss_latency::.cpu.data 83774.231678                       # average overall miss latency
system.l2.overall_avg_miss_latency::total 80335.949765                       # average overall miss latency
system.l2.blocked_cycles::no_mshrs                  0                       # number of cycles access was blocked
system.l2.blocked_cycles::no_targets                0                       # number of cycles access was blocked
system.l2.blocked::no_mshrs                         0                       # number of cycles access was blocked
system.l2.blocked::no_targets                       0                       # number of cycles access was blocked
system.l2.avg_blocked_cycles::no_mshrs            nan                       # average number of cycles each access was blocked
system.l2.avg_blocked_cycles::no_targets          nan                       # average number of cycles each access was blocked
system.l2.demand_mshr_misses::.cpu.inst           851                       # number of demand (read+write) MSHR misses
system.l2.demand_mshr_misses::.cpu.data           423                       # number of demand (read+write) MSHR misses
system.l2.demand_mshr_misses::total              1274                       # number of demand (read+write) MSHR misses
system.l2.overall_mshr_misses::.cpu.inst          851                       # number of overall MSHR misses
system.l2.overall_mshr_misses::.cpu.data          423                       # number of overall MSHR misses
system.l2.overall_mshr_misses::total             1274                       # number of overall MSHR misses
system.l2.demand_mshr_miss_latency::.cpu.inst     58411500                       # number of demand (read+write) MSHR miss cycles
system.l2.demand_mshr_miss_latency::.cpu.data     31206001                       # number of demand (read+write) MSHR miss cycles
system.l2.demand_mshr_miss_latency::total     89617501                       # number of demand (read+write) MSHR miss cycles
system.l2.overall_mshr_miss_latency::.cpu.inst     58411500                       # number of overall MSHR miss cycles
system.l2.overall_mshr_miss_latency::.cpu.data     31206001                       # number of overall MSHR miss cycles
system.l2.overall_mshr_miss_latency::total     89617501                       # number of overall MSHR miss cycles
system.l2.demand_mshr_miss_rate::.cpu.inst     0.529229                       # mshr miss rate for demand accesses
system.l2.demand_mshr_miss_rate::.cpu.data     0.986014                       # mshr miss rate for demand accesses
system.l2.demand_mshr_miss_rate::total       0.336059                       # mshr miss rate for demand accesses
system.l2.overall_mshr_miss_rate::.cpu.inst     0.529229                       # mshr miss rate for overall accesses
system.l2.overall_mshr_miss_rate::.cpu.data     0.986014                       # mshr miss rate for overall accesses
system.l2.overall_mshr_miss_rate::total      0.336059                       # mshr miss rate for overall accesses
system.l2.demand_avg_mshr_miss_latency::.cpu.inst 68638.660400                       # average overall mshr miss latency
system.l2.demand_avg_mshr_miss_latency::.cpu.data 73773.052009                       # average overall mshr miss latency
system.l2.demand_avg_mshr_miss_latency::total 70343.407378                       # average overall mshr miss latency
system.l2.overall_avg_mshr_miss_latency::.cpu.inst 68638.660400                       # average overall mshr miss latency
system.l2.overall_avg_mshr_miss_latency::.cpu.data 73773.052009                       # average overall mshr miss latency
system.l2.overall_avg_mshr_miss_latency::total 70343.407378                       # average overall mshr miss latency
system.l2.replacements                              0                       # number of replacements
system.l2.WritebackDirty_hits::.writebacks           18                       # number of WritebackDirty hits
system.l2.WritebackDirty_hits::total               18                       # number of WritebackDirty hits
system.l2.WritebackDirty_accesses::.writebacks           18                       # number of WritebackDirty accesses(hits+misses)
system.l2.WritebackDirty_accesses::total           18                       # number of WritebackDirty accesses(hits+misses)
system.l2.WritebackClean_hits::.writebacks         3275                       # number of WritebackClean hits
system.l2.WritebackClean_hits::total             3275                       # number of WritebackClean hits
system.l2.WritebackClean_accesses::.writebacks         3275                       # number of WritebackClean accesses(hits+misses)
system.l2.WritebackClean_accesses::total         3275                       # number of WritebackClean accesses(hits+misses)
system.l2.ReadExReq_misses::.cpu.data             245                       # number of ReadExReq misses
system.l2.ReadExReq_misses::total                 245                       # number of ReadExReq misses
system.l2.ReadExReq_miss_latency::.cpu.data     20096500                       # number of ReadExReq miss cycles
system.l2.ReadExReq_miss_latency::total      20096500                       # number of ReadExReq miss cycles
system.l2.ReadExReq_accesses::.cpu.data           245                       # number of ReadExReq accesses(hits+misses)
system.l2.ReadExReq_accesses::total               245                       # number of ReadExReq accesses(hits+misses)
system.l2.ReadExReq_miss_rate::.cpu.data            1                       # miss rate for ReadExReq accesses
system.l2.ReadExReq_miss_rate::total                1                       # miss rate for ReadExReq accesses
system.l2.ReadExReq_avg_miss_latency::.cpu.data 82026.530612                       # average ReadExReq miss latency
system.l2.ReadExReq_avg_miss_latency::total 82026.530612                       # average ReadExReq miss latency
system.l2.ReadExReq_mshr_misses::.cpu.data          245                       # number of ReadExReq MSHR misses
system.l2.ReadExReq_mshr_misses::total            245                       # number of ReadExReq MSHR misses
system.l2.ReadExReq_mshr_miss_latency::.cpu.data     17646001                       # number of ReadExReq MSHR miss cycles
system.l2.ReadExReq_mshr_miss_latency::total     17646001                       # number of ReadExReq MSHR miss cycles
system.l2.ReadExReq_mshr_miss_rate::.cpu.data            1                       # mshr miss rate for ReadExReq accesses
system.l2.ReadExReq_mshr_miss_rate::total            1                       # mshr miss rate for ReadExReq accesses
system.l2.ReadExReq_avg_mshr_miss_latency::.cpu.data 72024.493878                       # average ReadExReq mshr miss latency
system.l2.ReadExReq_avg_mshr_miss_latency::total 72024.493878                       # average ReadExReq mshr miss latency
system.l2.ReadCleanReq_hits::.cpu.inst            757                       # number of ReadCleanReq hits
system.l2.ReadCleanReq_hits::.cpu.icache.prefetcher         1754                       # number of ReadCleanReq hits
system.l2.ReadCleanReq_hits::total               2511                       # number of ReadCleanReq hits
system.l2.ReadCleanReq_misses::.cpu.inst          851                       # number of ReadCleanReq misses
system.l2.ReadCleanReq_misses::total              851                       # number of ReadCleanReq misses
system.l2.ReadCleanReq_miss_latency::.cpu.inst     66911500                       # number of ReadCleanReq miss cycles
system.l2.ReadCleanReq_miss_latency::total     66911500                       # number of ReadCleanReq miss cycles
system.l2.ReadCleanReq_accesses::.cpu.inst         1608                       # number of ReadCleanReq accesses(hits+misses)
system.l2.ReadCleanReq_accesses::.cpu.icache.prefetcher         1754                       # number of ReadCleanReq accesses(hits+misses)
system.l2.ReadCleanReq_accesses::total           3362                       # number of ReadCleanReq accesses(hits+misses)
[...]
system.cpu.dcache.overall_misses::total          2391                       # number of overall misses
system.cpu.dcache.demand_miss_latency::.cpu.data    155921924                       # number of demand (read+write) miss cycles
system.cpu.dcache.demand_miss_latency::total    155921924                       # number of demand (read+write) miss cycles
system.cpu.dcache.overall_miss_latency::.cpu.data    155921924                       # number of overall miss cycles
system.cpu.dcache.overall_miss_latency::total    155921924                       # number of overall miss cycles
system.cpu.dcache.demand_accesses::.cpu.data        12534                       # number of demand (read+write) accesses
system.cpu.dcache.demand_accesses::total        12534                       # number of demand (read+write) accesses
system.cpu.dcache.overall_accesses::.cpu.data        12553                       # number of overall (read+write) accesses
system.cpu.dcache.overall_accesses::total        12553                       # number of overall (read+write) accesses
system.cpu.dcache.demand_miss_rate::.cpu.data     0.190442                       # miss rate for demand accesses
system.cpu.dcache.demand_miss_rate::total     0.190442                       # miss rate for demand accesses
system.cpu.dcache.overall_miss_rate::.cpu.data     0.190472                       # miss rate for overall accesses
system.cpu.dcache.overall_miss_rate::total     0.190472                       # miss rate for overall accesses
system.cpu.dcache.demand_avg_miss_latency::.cpu.data 65321.291998                       # average overall miss latency
system.cpu.dcache.demand_avg_miss_latency::total 65321.291998                       # average overall miss latency
system.cpu.dcache.overall_avg_miss_latency::.cpu.data 65212.013384                       # average overall miss latency
system.cpu.dcache.overall_avg_miss_latency::total 65212.013384                       # average overall miss latency
system.cpu.dcache.blocked_cycles::no_mshrs         3987                       # number of cycles access was blocked
system.cpu.dcache.blocked_cycles::no_targets            0                       # number of cycles access was blocked
system.cpu.dcache.blocked::no_mshrs               115                       # number of cycles access was blocked
system.cpu.dcache.blocked::no_targets               0                       # number of cycles access was blocked
system.cpu.dcache.avg_blocked_cycles::no_mshrs    34.669565                       # average number of cycles each access was blocked
system.cpu.dcache.avg_blocked_cycles::no_targets          nan                       # average number of cycles each access was blocked
system.cpu.dcache.writebacks::.writebacks           18                       # number of writebacks
system.cpu.dcache.writebacks::total                18                       # number of writebacks
system.cpu.dcache.demand_mshr_hits::.cpu.data         1900                       # number of demand (read+write) MSHR hits
system.cpu.dcache.demand_mshr_hits::total         1900                       # number of demand (read+write) MSHR hits
system.cpu.dcache.overall_mshr_hits::.cpu.data         1900                       # number of overall MSHR hits
system.cpu.dcache.overall_mshr_hits::total         1900                       # number of overall MSHR hits
system.cpu.dcache.demand_mshr_misses::.cpu.data          487                       # number of demand (read+write) MSHR misses
system.cpu.dcache.demand_mshr_misses::total          487                       # number of demand (read+write) MSHR misses
system.cpu.dcache.overall_mshr_misses::.cpu.data          491                       # number of overall MSHR misses
system.cpu.dcache.overall_mshr_misses::total          491                       # number of overall MSHR misses
system.cpu.dcache.demand_mshr_miss_latency::.cpu.data     37690957                       # number of demand (read+write) MSHR miss cycles
system.cpu.dcache.demand_mshr_miss_latency::total     37690957                       # number of demand (read+write) MSHR miss cycles
system.cpu.dcache.overall_mshr_miss_latency::.cpu.data     38048957                       # number of overall MSHR miss cycles
system.cpu.dcache.overall_mshr_miss_latency::total     38048957                       # number of overall MSHR miss cycles
system.cpu.dcache.demand_mshr_miss_rate::.cpu.data     0.038854                       # mshr miss rate for demand accesses
system.cpu.dcache.demand_mshr_miss_rate::total     0.038854                       # mshr miss rate for demand accesses
system.cpu.dcache.overall_mshr_miss_rate::.cpu.data     0.039114                       # mshr miss rate for overall accesses
system.cpu.dcache.overall_mshr_miss_rate::total     0.039114                       # mshr miss rate for overall accesses
system.cpu.dcache.demand_avg_mshr_miss_latency::.cpu.data 77394.162218                       # average overall mshr miss latency
system.cpu.dcache.demand_avg_mshr_miss_latency::total 77394.162218                       # average overall mshr miss latency
system.cpu.dcache.overall_avg_mshr_miss_latency::.cpu.data 77492.784114                       # average overall mshr miss latency
system.cpu.dcache.overall_avg_mshr_miss_latency::total 77492.784114                       # average overall mshr miss latency
system.cpu.dcache.replacements                     27                       # number of replacements
system.cpu.dcache.ReadReq_hits::.cpu.data         5548                       # number of ReadReq hits
system.cpu.dcache.ReadReq_hits::total            5548                       # number of ReadReq hits
system.cpu.dcache.ReadReq_misses::.cpu.data          442                       # number of ReadReq misses
system.cpu.dcache.ReadReq_misses::total           442                       # number of ReadReq misses
system.cpu.dcache.ReadReq_miss_latency::.cpu.data     30672000                       # number of ReadReq miss cycles
system.cpu.dcache.ReadReq_miss_latency::total     30672000                       # number of ReadReq miss cycles
system.cpu.dcache.ReadReq_accesses::.cpu.data         5990                       # number of ReadReq accesses(hits+misses)
system.cpu.dcache.ReadReq_accesses::total         5990                       # number of ReadReq accesses(hits+misses)
system.cpu.dcache.ReadReq_miss_rate::.cpu.data     0.073790                       # miss rate for ReadReq accesses
system.cpu.dcache.ReadReq_miss_rate::total     0.073790                       # miss rate for ReadReq accesses
system.cpu.dcache.ReadReq_avg_miss_latency::.cpu.data 69393.665158                       # average ReadReq miss latency
system.cpu.dcache.ReadReq_avg_miss_latency::total 69393.665158                       # average ReadReq miss latency
system.cpu.dcache.ReadReq_mshr_hits::.cpu.data          263                       # number of ReadReq MSHR hits
system.cpu.dcache.ReadReq_mshr_hits::total          263                       # number of ReadReq MSHR hits
system.cpu.dcache.ReadReq_mshr_misses::.cpu.data          179                       # number of ReadReq MSHR misses
system.cpu.dcache.ReadReq_mshr_misses::total          179                       # number of ReadReq MSHR misses
system.cpu.dcache.ReadReq_mshr_miss_latency::.cpu.data     15257500                       # number of ReadReq MSHR miss cycles
system.cpu.dcache.ReadReq_mshr_miss_latency::total     15257500                       # number of ReadReq MSHR miss cycles
system.cpu.dcache.ReadReq_mshr_miss_rate::.cpu.data     0.029883                       # mshr miss rate for ReadReq accesses
system.cpu.dcache.ReadReq_mshr_miss_rate::total     0.029883                       # mshr miss rate for ReadReq accesses
system.cpu.dcache.ReadReq_avg_mshr_miss_latency::.cpu.data 85237.430168                       # average ReadReq mshr miss latency
system.cpu.dcache.ReadReq_avg_mshr_miss_latency::total 85237.430168                       # average ReadReq mshr miss latency
system.cpu.dcache.WriteReq_hits::.cpu.data         4599                       # number of WriteReq hits
system.cpu.dcache.WriteReq_hits::total           4599                       # number of WriteReq hits
system.cpu.dcache.WriteReq_misses::.cpu.data         1885                       # number of WriteReq misses
system.cpu.dcache.WriteReq_misses::total         1885                       # number of WriteReq misses
system.cpu.dcache.WriteReq_miss_latency::.cpu.data    123329459                       # number of WriteReq miss cycles
system.cpu.dcache.WriteReq_miss_latency::total    123329459                       # number of WriteReq miss cycles
system.cpu.dcache.WriteReq_accesses::.cpu.data         6484                       # number of WriteReq accesses(hits+misses)
system.cpu.dcache.WriteReq_accesses::total         6484                       # number of WriteReq accesses(hits+misses)
system.cpu.dcache.WriteReq_miss_rate::.cpu.data     0.290716                       # miss rate for WriteReq accesses
system.cpu.dcache.WriteReq_miss_rate::total     0.290716                       # miss rate for WriteReq accesses
system.cpu.dcache.WriteReq_avg_miss_latency::.cpu.data 65426.768700                       # average WriteReq miss latency
system.cpu.dcache.WriteReq_avg_miss_latency::total 65426.768700                       # average WriteReq miss latency
system.cpu.dcache.WriteReq_mshr_hits::.cpu.data         1637                       # number of WriteReq MSHR hits
system.cpu.dcache.WriteReq_mshr_hits::total         1637                       # number of WriteReq MSHR hits
system.cpu.dcache.WriteReq_mshr_misses::.cpu.data          248                       # number of WriteReq MSHR misses
system.cpu.dcache.WriteReq_mshr_misses::total          248                       # number of WriteReq MSHR misses
system.cpu.dcache.WriteReq_mshr_miss_latency::.cpu.data     20572992                       # number of WriteReq MSHR miss cycles
system.cpu.dcache.WriteReq_mshr_miss_latency::total     20572992                       # number of WriteReq MSHR miss cycles
system.cpu.dcache.WriteReq_mshr_miss_rate::.cpu.data     0.038248                       # mshr miss rate for WriteReq accesses
system.cpu.dcache.WriteReq_mshr_miss_rate::total     0.038248                       # mshr miss rate for WriteReq accesses
system.cpu.dcache.WriteReq_avg_mshr_miss_latency::.cpu.data 82955.612903                       # average WriteReq mshr miss latency
system.cpu.dcache.WriteReq_avg_mshr_miss_latency::total 82955.612903                       # average WriteReq mshr miss latency
system.cpu.dcache.SoftPFReq_hits::.cpu.data           15                       # number of SoftPFReq hits
system.cpu.dcache.SoftPFReq_hits::total            15                       # number of SoftPFReq hits
system.cpu.dcache.SoftPFReq_misses::.cpu.data            4                       # number of SoftPFReq misses
system.cpu.dcache.SoftPFReq_misses::total            4                       # number of SoftPFReq misses
system.cpu.dcache.SoftPFReq_accesses::.cpu.data           19                       # number of SoftPFReq accesses(hits+misses)
system.cpu.dcache.SoftPFReq_accesses::total           19                       # number of SoftPFReq accesses(hits+misses)
system.cpu.dcache.SoftPFReq_miss_rate::.cpu.data     0.210526                       # miss rate for SoftPFReq accesses
system.cpu.dcache.SoftPFReq_miss_rate::total     0.210526                       # miss rate for SoftPFReq accesses
system.cpu.dcache.SoftPFReq_mshr_misses::.cpu.data            4                       # number of SoftPFReq MSHR misses
system.cpu.dcache.SoftPFReq_mshr_misses::total            4                       # number of SoftPFReq MSHR misses
system.cpu.dcache.SoftPFReq_mshr_miss_latency::.cpu.data       358000                       # number of SoftPFReq MSHR miss cycles
system.cpu.dcache.SoftPFReq_mshr_miss_latency::total       358000                       # number of SoftPFReq MSHR miss cycles
system.cpu.dcache.SoftPFReq_mshr_miss_rate::.cpu.data     0.210526                       # mshr miss rate for SoftPFReq accesses
system.cpu.dcache.SoftPFReq_mshr_miss_rate::total     0.210526                       # mshr miss rate for SoftPFReq accesses
system.cpu.dcache.SoftPFReq_avg_mshr_miss_latency::.cpu.data        89500                       # average SoftPFReq mshr miss latency
system.cpu.dcache.SoftPFReq_avg_mshr_miss_latency::total        89500                       # average SoftPFReq mshr miss latency
system.cpu.dcache.WriteLineReq_misses::.cpu.data           60                       # number of WriteLineReq misses
system.cpu.dcache.WriteLineReq_misses::total           60                       # number of WriteLineReq misses
system.cpu.dcache.WriteLineReq_miss_latency::.cpu.data      1920465                       # number of WriteLineReq miss cycles
system.cpu.dcache.WriteLineReq_miss_latency::total      1920465                       # number of WriteLineReq miss cycles
system.cpu.dcache.WriteLineReq_accesses::.cpu.data           60                       # number of WriteLineReq accesses(hits+misses)
system.cpu.dcache.WriteLineReq_accesses::total           60                       # number of WriteLineReq accesses(hits+misses)
system.cpu.dcache.WriteLineReq_miss_rate::.cpu.data            1                       # miss rate for WriteLineReq accesses
system.cpu.dcache.WriteLineReq_miss_rate::total            1                       # miss rate for WriteLineReq accesses
system.cpu.dcache.WriteLineReq_avg_miss_latency::.cpu.data 32007.750000                       # average WriteLineReq miss latency
system.cpu.dcache.WriteLineReq_avg_miss_latency::total 32007.750000                       # average WriteLineReq miss latency
system.cpu.dcache.WriteLineReq_mshr_misses::.cpu.data           60                       # number of WriteLineReq MSHR misses
system.cpu.dcache.WriteLineReq_mshr_misses::total           60                       # number of WriteLineReq MSHR misses
system.cpu.dcache.WriteLineReq_mshr_miss_latency::.cpu.data      1860465                       # number of WriteLineReq MSHR miss cycles
system.cpu.dcache.WriteLineReq_mshr_miss_latency::total      1860465                       # number of WriteLineReq MSHR miss cycles
system.cpu.dcache.WriteLineReq_mshr_miss_rate::.cpu.data            1                       # mshr miss rate for WriteLineReq accesses
system.cpu.dcache.WriteLineReq_mshr_miss_rate::total            1                       # mshr miss rate for WriteLineReq accesses
system.cpu.dcache.WriteLineReq_avg_mshr_miss_latency::.cpu.data 31007.750000                       # average WriteLineReq mshr miss latency
system.cpu.dcache.WriteLineReq_avg_mshr_miss_latency::total 31007.750000                       # average WriteLineReq mshr miss latency
system.cpu.dcache.LoadLockedReq_hits::.cpu.data           28                       # number of LoadLockedReq hits
system.cpu.dcache.LoadLockedReq_hits::total           28                       # number of LoadLockedReq hits
system.cpu.dcache.LoadLockedReq_misses::.cpu.data            1                       # number of LoadLockedReq misses
system.cpu.dcache.LoadLockedReq_misses::total            1                       # number of LoadLockedReq misses
system.cpu.dcache.LoadLockedReq_miss_latency::.cpu.data        79500                       # number of LoadLockedReq miss cycles
system.cpu.dcache.LoadLockedReq_miss_latency::total        79500                       # number of LoadLockedReq miss cycles
system.cpu.dcache.LoadLockedReq_accesses::.cpu.data           29                       # number of LoadLockedReq accesses(hits+misses)
system.cpu.dcache.LoadLockedReq_accesses::total           29                       # number of LoadLockedReq accesses(hits+misses)
system.cpu.dcache.LoadLockedReq_miss_rate::.cpu.data     0.034483                       # miss rate for LoadLockedReq accesses
system.cpu.dcache.LoadLockedReq_miss_rate::total     0.034483                       # miss rate for LoadLockedReq accesses
system.cpu.dcache.LoadLockedReq_avg_miss_latency::.cpu.data        79500                       # average LoadLockedReq miss latency
system.cpu.dcache.LoadLockedReq_avg_miss_latency::total        79500                       # average LoadLockedReq miss latency
system.cpu.dcache.LoadLockedReq_mshr_misses::.cpu.data            1                       # number of LoadLockedReq MSHR misses
system.cpu.dcache.LoadLockedReq_mshr_misses::total            1                       # number of LoadLockedReq MSHR misses
system.cpu.dcache.LoadLockedReq_mshr_miss_latency::.cpu.data        78500                       # number of LoadLockedReq MSHR miss cycles
system.cpu.dcache.LoadLockedReq_mshr_miss_latency::total        78500                       # number of LoadLockedReq MSHR miss cycles
system.cpu.dcache.LoadLockedReq_mshr_miss_rate::.cpu.data     0.034483                       # mshr miss rate for LoadLockedReq accesses
system.cpu.dcache.LoadLockedReq_mshr_miss_rate::total     0.034483                       # mshr miss rate for LoadLockedReq accesses
system.cpu.dcache.LoadLockedReq_avg_mshr_miss_latency::.cpu.data        78500                       # average LoadLockedReq mshr miss latency
system.cpu.dcache.LoadLockedReq_avg_mshr_miss_latency::total        78500                       # average LoadLockedReq mshr miss latency
system.cpu.dcache.StoreCondReq_hits::.cpu.data           20                       # number of StoreCondReq hits
system.cpu.dcache.StoreCondReq_hits::total           20                       # number of StoreCondReq hits
system.cpu.dcache.StoreCondReq_accesses::.cpu.data           20                       # number of StoreCondReq accesses(hits+misses)
system.cpu.dcache.StoreCondReq_accesses::total           20                       # number of StoreCondReq accesses(hits+misses)
system.cpu.dcache.power_state.pwrStateResidencyTicks::UNDEFINED     68438500                       # Cumulative time (in ticks) in various power states
system.cpu.dcache.tags.tagsinuse           296.222998                       # Cycle average of tags in use
system.cpu.dcache.tags.total_refs               10702                       # Total number of references to valid blocks.
system.cpu.dcache.tags.sampled_refs               492                       # Sample count of references to valid blocks.
system.cpu.dcache.tags.avg_refs             21.752033                       # Average number of references to valid blocks.
system.cpu.dcache.tags.warmup_cycle            176500                       # Cycle when the warmup percentage was hit.
system.cpu.dcache.tags.occ_blocks::.cpu.data   296.222998                       # Average occupied blocks per requestor
system.cpu.dcache.tags.occ_percent::.cpu.data     0.289280                       # Average percentage of cache occupancy
system.cpu.dcache.tags.occ_percent::total     0.289280                       # Average percentage of cache occupancy
system.cpu.dcache.tags.occ_task_id_blocks::1024          465                       # Occupied blocks per task id
system.cpu.dcache.tags.age_task_id_blocks_1024::0           17                       # Occupied blocks per task id
system.cpu.dcache.tags.age_task_id_blocks_1024::1          448                       # Occupied blocks per task id
system.cpu.dcache.tags.occ_task_id_percent::1024     0.454102                       # Percentage of cache occupancy per task id
system.cpu.dcache.tags.tag_accesses             25696                       # Number of tag accesses
system.cpu.dcache.tags.data_accesses            25696                       # Number of data accesses
system.cpu.dcache.tags.power_state.pwrStateResidencyTicks::UNDEFINED     68438500                       # Cumulative time (in ticks) in various power states
system.cpu.power_state.pwrStateResidencyTicks::ON     68438500                       # Cumulative time (in ticks) in various power states

---------- End Simulation Statistics   ----------
