
---------- Begin Simulation Statistics ----------
final_tick                                  725974500                       # Number of ticks from beginning of simulation (restored from checkpoints and never reset)
host_inst_rate                                 157764                       # Simulator instruction rate (inst/s)
host_mem_usage                                 866388                       # Number of bytes of host memory used
host_op_rate                                   162046                       # Simulator op (including micro ops) rate (op/s)
host_seconds                                     6.34                       # Real time elapsed on the host
host_tick_rate                              114529100                       # Simulator tick rate (ticks/s)
sim_freq                                 1000000000000                       # Frequency of simulated ticks
sim_insts                                     1000001                       # Number of instructions simulated
sim_ops                                       1027168                       # Number of ops (including micro ops) simulated
sim_seconds                                  0.000726                       # Number of seconds simulated
sim_ticks                                   725974500                       # Number of ticks simulated
system.cpu.branchPred.BTBCorrect                    0                       # Number of correct BTB predictions (this stat may not work properly.
system.cpu.branchPred.BTBHitPct             99.246725                       # BTB Hit Percentage
system.cpu.branchPred.BTBHits                  275497                       # Number of BTB hits
system.cpu.branchPred.BTBLookups               277588                       # Number of BTB lookups
system.cpu.branchPred.RASInCorrect                 12                       # Number of incorrect RAS predictions.
system.cpu.branchPred.condIncorrect              4174                       # Number of conditional branches incorrect
system.cpu.branchPred.condPredicted            288818                       # Number of conditional branches predicted
system.cpu.branchPred.indirectHits               1692                       # Number of indirect target hits.
system.cpu.branchPred.indirectLookups            2469                       # Number of indirect predictor lookups.
system.cpu.branchPred.indirectMisses              777                       # Number of indirect misses.
system.cpu.branchPred.lookups                  303059                       # Number of BP lookups
system.cpu.branchPred.usedRAS                    5637                       # Number of times the RAS was used to get a target.
system.cpu.branchPredindirectMispredicted          232                       # Number of mispredicted indirect branches.
system.cpu.cc_regfile_reads                    738987                       # number of cc regfile reads
system.cpu.cc_regfile_writes                   741255                       # number of cc regfile writes
system.cpu.commit.amos                              0                       # Number of atomic instructions committed
system.cpu.commit.branchMispredicts              3613                       # The number of times a branch was mispredicted
system.cpu.commit.branches                     247012                       # Number of branches committed
system.cpu.commit.bw_lim_events                  6413                       # number cycles where commit BW limit reached
system.cpu.commit.commitNonSpecStalls             174                       # The number of times commit has been forced to stall to communicate backwards
system.cpu.commit.commitSquashedInsts           90800                       # The number of squashed insts skipped by commit
system.cpu.commit.committedInsts              1002022                       # Number of instructions committed
system.cpu.commit.committedOps                1029189                       # Number of ops (including micro ops) committed
system.cpu.commit.committed_per_cycle::samples      1343744                       # Number of insts commited each cycle
system.cpu.commit.committed_per_cycle::mean     0.765912                       # Number of insts commited each cycle
system.cpu.commit.committed_per_cycle::stdev     1.516829                       # Number of insts commited each cycle
system.cpu.commit.committed_per_cycle::underflows            0      0.00%      0.00% # Number of insts commited each cycle
system.cpu.commit.committed_per_cycle::0       999079     74.35%     74.35% # Number of insts commited each cycle
system.cpu.commit.committed_per_cycle::1        96421      7.18%     81.53% # Number of insts commited each cycle
system.cpu.commit.committed_per_cycle::2        29529      2.20%     83.72% # Number of insts commited each cycle
system.cpu.commit.committed_per_cycle::3        40985      3.05%     86.77% # Number of insts commited each cycle
system.cpu.commit.committed_per_cycle::4       163544     12.17%     98.94% # Number of insts commited each cycle
system.cpu.commit.committed_per_cycle::5         3633      0.27%     99.21% # Number of insts commited each cycle
system.cpu.commit.committed_per_cycle::6         1870      0.14%     99.35% # Number of insts commited each cycle
system.cpu.commit.committed_per_cycle::7         2270      0.17%     99.52% # Number of insts commited each cycle
system.cpu.commit.committed_per_cycle::8         6413      0.48%    100.00% # Number of insts commited each cycle
system.cpu.commit.committed_per_cycle::overflows            0      0.00%    100.00% # Number of insts commited each cycle
system.cpu.commit.committed_per_cycle::min_value            0                       # Number of insts commited each cycle
system.cpu.commit.committed_per_cycle::max_value            8                       # Number of insts commited each cycle
system.cpu.commit.committed_per_cycle::total      1343744                       # Number of insts commited each cycle
system.cpu.commit.fp_insts                          0                       # Number of committed floating point instructions.
system.cpu.commit.function_calls                 4620                       # Number of function calls committed.
system.cpu.commit.int_insts                    800492                       # Number of committed integer instructions.
system.cpu.commit.loads                         35378                       # Number of loads committed
system.cpu.commit.membars                         138                       # Number of memory barriers committed
system.cpu.commit.op_class_0::No_OpClass            3      0.00%      0.00% # Class of committed instruction
system.cpu.commit.op_class_0::IntAlu           756594     73.51%     73.51% # Class of committed instruction
system.cpu.commit.op_class_0::IntMult             384      0.04%     73.55% # Class of committed instruction
system.cpu.commit.op_class_0::IntDiv               94      0.01%     73.56% # Class of committed instruction
system.cpu.commit.op_class_0::FloatAdd              8      0.00%     73.56% # Class of committed instruction
system.cpu.commit.op_class_0::FloatCmp              0      0.00%     73.56% # Class of committed instruction
system.cpu.commit.op_class_0::FloatCvt              0      0.00%     73.56% # Class of committed instruction
system.cpu.commit.op_class_0::FloatMult             0      0.00%     73.56% # Class of committed instruction
system.cpu.commit.op_class_0::FloatMultAcc            0      0.00%     73.56% # Class of committed instruction
system.cpu.commit.op_class_0::FloatDiv              0      0.00%     73.56% # Class of committed instruction
system.cpu.commit.op_class_0::FloatMisc            32      0.00%     73.56% # Class of committed instruction
system.cpu.commit.op_class_0::FloatSqrt             0      0.00%     73.56% # Class of committed instruction
system.cpu.commit.op_class_0::SimdAdd              15      0.00%     73.57% # Class of committed instruction
system.cpu.commit.op_class_0::SimdAddAcc            0      0.00%     73.57% # Class of committed instruction
system.cpu.commit.op_class_0::SimdAlu              10      0.00%     73.57% # Class of committed instruction
system.cpu.commit.op_class_0::SimdCmp              12      0.00%     73.57% # Class of committed instruction
system.cpu.commit.op_class_0::SimdCvt               0      0.00%     73.57% # Class of committed instruction
system.cpu.commit.op_class_0::SimdMisc             72      0.01%     73.57% # Class of committed instruction
system.cpu.commit.op_class_0::SimdMult              0      0.00%     73.57% # Class of committed instruction
system.cpu.commit.op_class_0::SimdMultAcc            0      0.00%     73.57% # Class of committed instruction
system.cpu.commit.op_class_0::SimdShift             0      0.00%     73.57% # Class of committed instruction
system.cpu.commit.op_class_0::SimdShiftAcc            0      0.00%     73.57% # Class of committed instruction
system.cpu.commit.op_class_0::SimdDiv               0      0.00%     73.57% # Class of committed instruction
system.cpu.commit.op_class_0::SimdSqrt              0      0.00%     73.57% # Class of committed instruction
system.cpu.commit.op_class_0::SimdFloatAdd            0      0.00%     73.57% # Class of committed instruction
system.cpu.commit.op_class_0::SimdFloatAlu            0      0.00%     73.57% # Class of committed instruction
system.cpu.commit.op_class_0::SimdFloatCmp            0      0.00%     73.57% # Class of committed instruction
system.cpu.commit.op_class_0::SimdFloatCvt            0      0.00%     73.57% # Class of committed instruction
system.cpu.commit.op_class_0::SimdFloatDiv            0      0.00%     73.57% # Class of committed instruction
system.cpu.commit.op_class_0::SimdFloatMisc            0      0.00%     73.57% # Class of committed instruction
system.cpu.commit.op_class_0::SimdFloatMult            0      0.00%     73.57% # Class of committed instruction
system.cpu.commit.op_class_0::SimdFloatMultAcc            0      0.00%     73.57% # Class of committed instruction
system.cpu.commit.op_class_0::SimdFloatSqrt            0      0.00%     73.57% # Class of committed instruction
system.cpu.commit.op_class_0::SimdReduceAdd            0      0.00%     73.57% # Class of committed instruction
system.cpu.commit.op_class_0::SimdReduceAlu            0      0.00%     73.57% # Class of committed instruction
system.cpu.commit.op_class_0::SimdReduceCmp            0      0.00%     73.57% # Class of committed instruction
system.cpu.commit.op_class_0::SimdFloatReduceAdd            0      0.00%     73.57% # Class of committed instruction
system.cpu.commit.op_class_0::SimdFloatReduceCmp            0      0.00%     73.57% # Class of committed instruction
system.cpu.commit.op_class_0::SimdAes               0      0.00%     73.57% # Class of committed instruction
system.cpu.commit.op_class_0::SimdAesMix            0      0.00%     73.57% # Class of committed instruction
system.cpu.commit.op_class_0::SimdSha1Hash            0      0.00%     73.57% # Class of committed instruction
system.cpu.commit.op_class_0::SimdSha1Hash2            0      0.00%     73.57% # Class of committed instruction
system.cpu.commit.op_class_0::SimdSha256Hash            0      0.00%     73.57% # Class of committed instruction
system.cpu.commit.op_class_0::SimdSha256Hash2            0      0.00%     73.57% # Class of committed instruction
system.cpu.commit.op_class_0::SimdShaSigma2            0      0.00%     73.57% # Class of committed instruction
system.cpu.commit.op_class_0::SimdShaSigma3            0      0.00%     73.57% # Class of committed instruction
system.cpu.commit.op_class_0::SimdPredAlu            0      0.00%     73.57% # Class of committed instruction
system.cpu.commit.op_class_0::MemRead           35378      3.44%     77.01% # Class of committed instruction
system.cpu.commit.op_class_0::MemWrite         236587     22.99%    100.00% # Class of committed instruction
system.cpu.commit.op_class_0::FloatMemRead            0      0.00%    100.00% # Class of committed instruction
system.cpu.commit.op_class_0::FloatMemWrite            0      0.00%    100.00% # Class of committed instruction
system.cpu.commit.op_class_0::IprAccess             0      0.00%    100.00% # Class of committed instruction
system.cpu.commit.op_class_0::InstPrefetch            0      0.00%    100.00% # Class of committed instruction
system.cpu.commit.op_class_0::total           1029189                       # Class of committed instruction
system.cpu.commit.refs                         271965                       # Number of memory references committed
system.cpu.commit.swp_count                         0                       # Number of s/w prefetches committed
system.cpu.commit.vec_insts                      2101                       # Number of committed Vector instructions.
system.cpu.committedInsts                     1000001                       # Number of Instructions Simulated
system.cpu.committedOps                       1027168                       # Number of Ops (including micro ops) Simulated
system.cpu.cpi                               1.451949                       # CPI: Cycles Per Instruction
system.cpu.cpi_total                         1.451949                       # CPI: Total CPI of All Threads
system.cpu.decode.BlockedCycles                930518                       # Number of cycles decode is blocked
system.cpu.decode.BranchMispred                   593                       # Number of times decode detected a branch misprediction
system.cpu.decode.BranchResolved               256445                       # Number of times decode resolved a branch
system.cpu.decode.DecodedInsts                1173299                       # Number of instructions handled by decode
system.cpu.decode.IdleCycles                   247457                       # Number of cycles decode is idle
system.cpu.decode.RunCycles                    124425                       # Number of cycles decode is running
system.cpu.decode.SquashCycles                   4102                       # Number of cycles decode is squashing
system.cpu.decode.SquashedInsts                  1991                       # Number of squashed instructions handled by decode
system.cpu.decode.UnblockCycles                 50644                       # Number of cycles decode is unblocking
system.cpu.dtb.accesses                             0                       # DTB accesses
system.cpu.dtb.align_faults                         0                       # Number of TLB faults due to alignment restrictions
system.cpu.dtb.domain_faults                        0                       # Number of TLB faults due to domain restrictions
system.cpu.dtb.flush_entries                        0                       # Number of entries that have been flushed from TLB
system.cpu.dtb.flush_tlb                            0                       # Number of times complete TLB was flushed
system.cpu.dtb.flush_tlb_asid                       0                       # Number of times TLB was flushed by ASID
system.cpu.dtb.flush_tlb_mva                        0                       # Number of times TLB was flushed by MVA
system.cpu.dtb.flush_tlb_mva_asid                   0                       # Number of times TLB was flushed by MVA & ASID
system.cpu.dtb.hits                                 0                       # DTB hits
system.cpu.dtb.inst_accesses                        0                       # ITB inst accesses
system.cpu.dtb.inst_hits                            0                       # ITB inst hits
system.cpu.dtb.inst_misses                          0                       # ITB inst misses
system.cpu.dtb.misses                               0                       # DTB misses
system.cpu.dtb.perms_faults                         0                       # Number of TLB faults due to permissions restrictions
system.cpu.dtb.prefetch_faults                      0                       # Number of TLB faults due to prefetch
system.cpu.dtb.read_accesses                        0                       # DTB read accesses
system.cpu.dtb.read_hits                            0                       # DTB read hits
system.cpu.dtb.read_misses                          0                       # DTB read misses
system.cpu.dtb.stage2_mmu.stage2_tlb.accesses            0                       # DTB accesses
system.cpu.dtb.stage2_mmu.stage2_tlb.align_faults            0                       # Number of TLB faults due to alignment restrictions
system.cpu.dtb.stage2_mmu.stage2_tlb.domain_faults            0                       # Number of TLB faults due to domain restrictions
system.cpu.dtb.stage2_mmu.stage2_tlb.flush_entries            0                       # Number of entries that have been flushed from TLB
system.cpu.dtb.stage2_mmu.stage2_tlb.flush_tlb            0                       # Number of times complete TLB was flushed
system.cpu.dtb.stage2_mmu.stage2_tlb.flush_tlb_asid            0                       # Number of times TLB was flushed by ASID
system.cpu.dtb.stage2_mmu.stage2_tlb.flush_tlb_mva            0                       # Number of times TLB was flushed by MVA
system.cpu.dtb.stage2_mmu.stage2_tlb.flush_tlb_mva_asid            0                       # Number of times TLB was flushed by MVA & ASID
system.cpu.dtb.stage2_mmu.stage2_tlb.hits            0                       # DTB hits
system.cpu.dtb.stage2_mmu.stage2_tlb.inst_accesses            0                       # ITB inst accesses
system.cpu.dtb.stage2_mmu.stage2_tlb.inst_hits            0                       # ITB inst hits
system.cpu.dtb.stage2_mmu.stage2_tlb.inst_misses            0                       # ITB inst misses
system.cpu.dtb.stage2_mmu.stage2_tlb.misses            0                       # DTB misses
system.cpu.dtb.stage2_mmu.stage2_tlb.perms_faults            0                       # Number of TLB faults due to permissions restrictions
system.cpu.dtb.stage2_mmu.stage2_tlb.prefetch_faults            0                       # Number of TLB faults due to prefetch
system.cpu.dtb.stage2_mmu.stage2_tlb.read_accesses            0                       # DTB read accesses
system.cpu.dtb.stage2_mmu.stage2_tlb.read_hits            0                       # DTB read hits
system.cpu.dtb.stage2_mmu.stage2_tlb.read_misses            0                       # DTB read misses
system.cpu.dtb.stage2_mmu.stage2_tlb.walker.walkRequestOrigin_Requested::Data            0                       # Table walker requests started/completed, data/inst
system.cpu.dtb.stage2_mmu.stage2_tlb.walker.walkRequestOrigin_Requested::Inst            0                       # Table walker requests started/completed, data/inst
system.cpu.dtb.stage2_mmu.stage2_tlb.walker.walkRequestOrigin_Requested::total            0                       # Table walker requests started/completed, data/inst
system.cpu.dtb.stage2_mmu.stage2_tlb.walker.walkRequestOrigin_Completed::Data            0                       # Table walker requests started/completed, data/inst
system.cpu.dtb.stage2_mmu.stage2_tlb.walker.walkRequestOrigin_Completed::Inst            0                       # Table walker requests started/completed, data/inst
system.cpu.dtb.stage2_mmu.stage2_tlb.walker.walkRequestOrigin_Completed::total            0                       # Table walker requests started/completed, data/inst
system.cpu.dtb.stage2_mmu.stage2_tlb.walker.walkRequestOrigin::total            0                       # Table walker requests started/completed, data/inst
system.cpu.dtb.stage2_mmu.stage2_tlb.walker.walks            0                       # Table walker walks requested
system.cpu.dtb.stage2_mmu.stage2_tlb.write_accesses            0                       # DTB write accesses
system.cpu.dtb.stage2_mmu.stage2_tlb.write_hits            0                       # DTB write hits
system.cpu.dtb.stage2_mmu.stage2_tlb.write_misses            0                       # DTB write misses
system.cpu.dtb.walker.walkRequestOrigin_Requested::Data            0                       # Table walker requests started/completed, data/inst
system.cpu.dtb.walker.walkRequestOrigin_Requested::Inst            0                       # Table walker requests started/completed, data/inst
system.cpu.dtb.walker.walkRequestOrigin_Requested::total            0                       # Table walker requests started/completed, data/inst
system.cpu.dtb.walker.walkRequestOrigin_Completed::Data            0                       # Table walker requests started/completed, data/inst
system.cpu.dtb.walker.walkRequestOrigin_Completed::Inst            0                       # Table walker requests started/completed, data/inst
system.cpu.dtb.walker.walkRequestOrigin_Completed::total            0                       # Table walker requests started/completed, data/inst
system.cpu.dtb.walker.walkRequestOrigin::total            0                       # Table walker requests started/completed, data/inst
system.cpu.dtb.walker.walks                         0                       # Table walker walks requested
system.cpu.dtb.write_accesses                       0                       # DTB write accesses
system.cpu.dtb.write_hits                           0                       # DTB write hits
system.cpu.dtb.write_misses                         0                       # DTB write misses
system.cpu.fetch.Branches                      303059                       # Number of branches that fetch encountered
system.cpu.fetch.CacheLines                     31456                       # Number of cache lines fetched
system.cpu.fetch.Cycles                       1121021                       # Number of cycles fetch has run and was not squashing or blocked
system.cpu.fetch.IcacheSquashes                  1725                       # Number of outstanding Icache misses that were squashed
system.cpu.fetch.IcacheWaitRetryStallCycles           43                       # Number of stall cycles due to full MSHR
system.cpu.fetch.Insts                        1227599                       # Number of instructions fetch has processed
system.cpu.fetch.MiscStallCycles                   26                       # Number of cycles fetch has spent waiting on interrupts, or bad addresses, or out of MSHRs
system.cpu.fetch.PendingTrapStallCycles           132                       # Number of stall cycles due to pending traps
system.cpu.fetch.SquashCycles                    9370                       # Number of cycles fetch has spent squashing
system.cpu.fetch.branchRate                  0.208726                       # Number of branch fetches per cycle
system.cpu.fetch.icacheStallCycles             231239                       # Number of cycles fetch is stalled on an Icache miss
system.cpu.fetch.predictedBranches             282826                       # Number of branches that fetch has predicted taken
system.cpu.fetch.rate                        0.845483                       # Number of inst fetches per cycle
system.cpu.fetch.rateDist::samples            1357146                       # Number of instructions fetched each cycle (Total)
system.cpu.fetch.rateDist::mean              0.928267                       # Number of instructions fetched each cycle (Total)
system.cpu.fetch.rateDist::stdev             1.812314                       # Number of instructions fetched each cycle (Total)
system.cpu.fetch.rateDist::underflows               0      0.00%      0.00% # Number of instructions fetched each cycle (Total)
system.cpu.fetch.rateDist::0                  1056122     77.82%     77.82% # Number of instructions fetched each cycle (Total)
system.cpu.fetch.rateDist::1                     4396      0.32%     78.14% # Number of instructions fetched each cycle (Total)
system.cpu.fetch.rateDist::2                     4717      0.35%     78.49% # Number of instructions fetched each cycle (Total)
system.cpu.fetch.rateDist::3                     5847      0.43%     78.92% # Number of instructions fetched each cycle (Total)
system.cpu.fetch.rateDist::4                   259241     19.10%     98.02% # Number of instructions fetched each cycle (Total)
system.cpu.fetch.rateDist::5                     4836      0.36%     98.38% # Number of instructions fetched each cycle (Total)
system.cpu.fetch.rateDist::6                     2195      0.16%     98.54% # Number of instructions fetched each cycle (Total)
system.cpu.fetch.rateDist::7                     4227      0.31%     98.85% # Number of instructions fetched each cycle (Total)
system.cpu.fetch.rateDist::8                    15565      1.15%    100.00% # Number of instructions fetched each cycle (Total)
system.cpu.fetch.rateDist::overflows                0      0.00%    100.00% # Number of instructions fetched each cycle (Total)
system.cpu.fetch.rateDist::min_value                0                       # Number of instructions fetched each cycle (Total)
system.cpu.fetch.rateDist::max_value                8                       # Number of instructions fetched each cycle (Total)
system.cpu.fetch.rateDist::total              1357146                       # Number of instructions fetched each cycle (Total)
system.cpu.idleCycles                           94804                       # Total number of cycles that the CPU has spent unscheduled due to idling
system.cpu.iew.branchMispredicts                 3943                       # Number of branch mispredicts detected at execute
system.cpu.iew.exec_branches                   265608                       # Number of branches executed
system.cpu.iew.exec_nop                          2186                       # number of nop insts executed
system.cpu.iew.exec_rate                     0.765796                       # Inst execution rate
system.cpu.iew.exec_refs                       294919                       # number of memory reference insts executed
system.cpu.iew.exec_stores                     255433                       # Number of stores executed
system.cpu.iew.exec_swp                             0                       # number of swp insts executed
system.cpu.iew.iewBlockCycles                    9736                       # Number of cycles IEW is blocking
system.cpu.iew.iewDispLoadInsts                 40004                       # Number of dispatched load instructions
system.cpu.iew.iewDispNonSpecInsts                199                       # Number of dispatched non-speculative instructions
system.cpu.iew.iewDispSquashedInsts              1921                       # Number of squashed instructions skipped by dispatch
system.cpu.iew.iewDispStoreInsts               258891                       # Number of dispatched store instructions
system.cpu.iew.iewDispatchedInsts             1131954                       # Number of instructions dispatched to IQ
system.cpu.iew.iewExecLoadInsts                 39486                       # Number of load instructions executed
system.cpu.iew.iewExecSquashedInsts              5691                       # Number of squashed instructions skipped in execute
system.cpu.iew.iewExecutedInsts               1111898                       # Number of executed instructions
system.cpu.iew.iewIQFullEvents                     13                       # Number of times the IQ has become full, causing a stall
system.cpu.iew.iewIdleCycles                        0                       # Number of cycles IEW is idle
system.cpu.iew.iewLSQFullEvents                   496                       # Number of times the LSQ has become full, causing a stall
system.cpu.iew.iewSquashCycles                   4102                       # Number of cycles IEW is squashing
system.cpu.iew.iewUnblockCycles                   508                       # Number of cycles IEW is unblocking
system.cpu.iew.lsq.thread0.blockedLoads             0                       # Number of blocked loads due to partial load-store forwarding
system.cpu.iew.lsq.thread0.cacheBlocked         16175                       # Number of times an access to memory failed due to the cache being blocked
system.cpu.iew.lsq.thread0.forwLoads             2198                       # Number of loads that had data forwarded from stores
system.cpu.iew.lsq.thread0.ignoredResponses            8                       # Number of memory responses ignored because the instruction is squashed
system.cpu.iew.lsq.thread0.invAddrLoads             0                       # Number of loads ignored due to an invalid address
system.cpu.iew.lsq.thread0.invAddrSwpfs             0                       # Number of software prefetches ignored due to an invalid address
system.cpu.iew.lsq.thread0.memOrderViolation           37                       # Number of memory ordering violations
system.cpu.iew.lsq.thread0.rescheduledLoads          628                       # Number of loads that were rescheduled
system.cpu.iew.lsq.thread0.squashedLoads         4626                       # Number of loads squashed
system.cpu.iew.lsq.thread0.squashedStores        22302                       # Number of stores squashed
system.cpu.iew.memOrderViolationEvents             37                       # Number of memory order violations
system.cpu.iew.predictedNotTakenIncorrect         1766                       # Number of branches that were predicted not taken incorrectly
system.cpu.iew.predictedTakenIncorrect           2177                       # Number of branches that were predicted taken incorrectly
system.cpu.iew.wb_consumers                   1432775                       # num instructions consuming a value
system.cpu.iew.wb_count                       1099045                       # cumulative count of insts written-back
system.cpu.iew.wb_fanout                     0.387236                       # average fanout of values written-back
system.cpu.iew.wb_producers                    554822                       # num instructions producing a value
system.cpu.iew.wb_rate                       0.756944                       # insts written-back per cycle
system.cpu.iew.wb_sent                        1110126                       # cumulative count of insts sent to commit
system.cpu.int_regfile_reads                  1367363                       # number of integer regfile reads
system.cpu.int_regfile_writes                  599637                       # number of integer regfile writes
system.cpu.ipc                               0.688730                       # IPC: Instructions Per Cycle
system.cpu.ipc_total                         0.688730                       # IPC: Total IPC of All Threads
system.cpu.iq.FU_type_0::No_OpClass                26      0.00%      0.00% # Type of FU issued
system.cpu.iq.FU_type_0::IntAlu                820011     73.37%     73.38% # Type of FU issued
system.cpu.iq.FU_type_0::IntMult                  386      0.03%     73.41% # Type of FU issued
system.cpu.iq.FU_type_0::IntDiv                    96      0.01%     73.42% # Type of FU issued
system.cpu.iq.FU_type_0::FloatAdd                  11      0.00%     73.42% # Type of FU issued
system.cpu.iq.FU_type_0::FloatCmp                   0      0.00%     73.42% # Type of FU issued
system.cpu.iq.FU_type_0::FloatCvt                   0      0.00%     73.42% # Type of FU issued
system.cpu.iq.FU_type_0::FloatMult                  0      0.00%     73.42% # Type of FU issued
system.cpu.iq.FU_type_0::FloatMultAcc               0      0.00%     73.42% # Type of FU issued
system.cpu.iq.FU_type_0::FloatDiv                   0      0.00%     73.42% # Type of FU issued
system.cpu.iq.FU_type_0::FloatMisc                 39      0.00%     73.42% # Type of FU issued
system.cpu.iq.FU_type_0::FloatSqrt                  0      0.00%     73.42% # Type of FU issued
system.cpu.iq.FU_type_0::SimdAdd                   21      0.00%     73.42% # Type of FU issued
system.cpu.iq.FU_type_0::SimdAddAcc                 0      0.00%     73.42% # Type of FU issued
system.cpu.iq.FU_type_0::SimdAlu                   14      0.00%     73.43% # Type of FU issued
system.cpu.iq.FU_type_0::SimdCmp                   16      0.00%     73.43% # Type of FU issued
system.cpu.iq.FU_type_0::SimdCvt                    0      0.00%     73.43% # Type of FU issued
system.cpu.iq.FU_type_0::SimdMisc                  80      0.01%     73.43% # Type of FU issued
system.cpu.iq.FU_type_0::SimdMult                   0      0.00%     73.43% # Type of FU issued
system.cpu.iq.FU_type_0::SimdMultAcc                0      0.00%     73.43% # Type of FU issued
system.cpu.iq.FU_type_0::SimdShift                  0      0.00%     73.43% # Type of FU issued
system.cpu.iq.FU_type_0::SimdShiftAcc               0      0.00%     73.43% # Type of FU issued
system.cpu.iq.FU_type_0::SimdDiv                    0      0.00%     73.43% # Type of FU issued
system.cpu.iq.FU_type_0::SimdSqrt                   0      0.00%     73.43% # Type of FU issued
system.cpu.iq.FU_type_0::SimdFloatAdd               0      0.00%     73.43% # Type of FU issued
system.cpu.iq.FU_type_0::SimdFloatAlu               0      0.00%     73.43% # Type of FU issued
system.cpu.iq.FU_type_0::SimdFloatCmp               0      0.00%     73.43% # Type of FU issued
system.cpu.iq.FU_type_0::SimdFloatCvt               0      0.00%     73.43% # Type of FU issued
system.cpu.iq.FU_type_0::SimdFloatDiv               0      0.00%     73.43% # Type of FU issued
system.cpu.iq.FU_type_0::SimdFloatMisc              0      0.00%     73.43% # Type of FU issued
system.cpu.iq.FU_type_0::SimdFloatMult              0      0.00%     73.43% # Type of FU issued
system.cpu.iq.FU_type_0::SimdFloatMultAcc            0      0.00%     73.43% # Type of FU issued
system.cpu.iq.FU_type_0::SimdFloatSqrt              0      0.00%     73.43% # Type of FU issued
system.cpu.iq.FU_type_0::SimdReduceAdd              0      0.00%     73.43% # Type of FU issued
system.cpu.iq.FU_type_0::SimdReduceAlu              0      0.00%     73.43% # Type of FU issued
system.cpu.iq.FU_type_0::SimdReduceCmp              0      0.00%     73.43% # Type of FU issued
system.cpu.iq.FU_type_0::SimdFloatReduceAdd            0      0.00%     73.43% # Type of FU issued
system.cpu.iq.FU_type_0::SimdFloatReduceCmp            0      0.00%     73.43% # Type of FU issued
system.cpu.iq.FU_type_0::SimdAes                    0      0.00%     73.43% # Type of FU issued
system.cpu.iq.FU_type_0::SimdAesMix                 0      0.00%     73.43% # Type of FU issued
system.cpu.iq.FU_type_0::SimdSha1Hash               0      0.00%     73.43% # Type of FU issued
system.cpu.iq.FU_type_0::SimdSha1Hash2              0      0.00%     73.43% # Type of FU issued
system.cpu.iq.FU_type_0::SimdSha256Hash             0      0.00%     73.43% # Type of FU issued
system.cpu.iq.FU_type_0::SimdSha256Hash2            0      0.00%     73.43% # Type of FU issued
system.cpu.iq.FU_type_0::SimdShaSigma2              0      0.00%     73.43% # Type of FU issued
system.cpu.iq.FU_type_0::SimdShaSigma3              0      0.00%     73.43% # Type of FU issued
system.cpu.iq.FU_type_0::SimdPredAlu                0      0.00%     73.43% # Type of FU issued
system.cpu.iq.FU_type_0::MemRead                40054      3.58%     77.02% # Type of FU issued
system.cpu.iq.FU_type_0::MemWrite              256836     22.98%    100.00% # Type of FU issued
system.cpu.iq.FU_type_0::FloatMemRead               0      0.00%    100.00% # Type of FU issued
system.cpu.iq.FU_type_0::FloatMemWrite              0      0.00%    100.00% # Type of FU issued
system.cpu.iq.FU_type_0::IprAccess                  0      0.00%    100.00% # Type of FU issued
system.cpu.iq.FU_type_0::InstPrefetch               0      0.00%    100.00% # Type of FU issued
system.cpu.iq.FU_type_0::total                1117590                       # Type of FU issued
system.cpu.iq.fp_alu_accesses                       0                       # Number of floating point alu accesses
system.cpu.iq.fp_inst_queue_reads                   0                       # Number of floating instruction queue reads
system.cpu.iq.fp_inst_queue_wakeup_accesses            0                       # Number of floating instruction queue wakeup accesses
system.cpu.iq.fp_inst_queue_writes                  0                       # Number of floating instruction queue writes
system.cpu.iq.fu_busy_cnt                        3021                       # FU busy when requested
system.cpu.iq.fu_busy_rate                   0.002703                       # FU busy rate (busy events/executed inst)
system.cpu.iq.fu_full::No_OpClass                   0      0.00%      0.00% # attempts to use FU when none available
system.cpu.iq.fu_full::IntAlu                     727     24.06%     24.06% # attempts to use FU when none available
system.cpu.iq.fu_full::IntMult                      0      0.00%     24.06% # attempts to use FU when none available
system.cpu.iq.fu_full::IntDiv                       0      0.00%     24.06% # attempts to use FU when none available
system.cpu.iq.fu_full::FloatAdd                     0      0.00%     24.06% # attempts to use FU when none available
system.cpu.iq.fu_full::FloatCmp                     0      0.00%     24.06% # attempts to use FU when none available
system.cpu.iq.fu_full::FloatCvt                     0      0.00%     24.06% # attempts to use FU when none available
system.cpu.iq.fu_full::FloatMult                    0      0.00%     24.06% # attempts to use FU when none available
system.cpu.iq.fu_full::FloatMultAcc                 0      0.00%     24.06% # attempts to use FU when none available
system.cpu.iq.fu_full::FloatDiv                     0      0.00%     24.06% # attempts to use FU when none available
system.cpu.iq.fu_full::FloatMisc                    0      0.00%     24.06% # attempts to use FU when none available
system.cpu.iq.fu_full::FloatSqrt                    0      0.00%     24.06% # attempts to use FU when none available
system.cpu.iq.fu_full::SimdAdd                      0      0.00%     24.06% # attempts to use FU when none available
system.cpu.iq.fu_full::SimdAddAcc                   0      0.00%     24.06% # attempts to use FU when none available
system.cpu.iq.fu_full::SimdAlu                      1      0.03%     24.10% # attempts to use FU when none available
system.cpu.iq.fu_full::SimdCmp                      2      0.07%     24.16% # attempts to use FU when none available
system.cpu.iq.fu_full::SimdCvt                      0      0.00%     24.16% # attempts to use FU when none available
system.cpu.iq.fu_full::SimdMisc                     0      0.00%     24.16% # attempts to use FU when none available
system.cpu.iq.fu_full::SimdMult                     0      0.00%     24.16% # attempts to use FU when none available
system.cpu.iq.fu_full::SimdMultAcc                  0      0.00%     24.16% # attempts to use FU when none available
system.cpu.iq.fu_full::SimdShift                    0      0.00%     24.16% # attempts to use FU when none available
system.cpu.iq.fu_full::SimdShiftAcc                 0      0.00%     24.16% # attempts to use FU when none available
system.cpu.iq.fu_full::SimdDiv                      0      0.00%     24.16% # attempts to use FU when none available
system.cpu.iq.fu_full::SimdSqrt                     0      0.00%     24.16% # attempts to use FU when none available
system.cpu.iq.fu_full::SimdFloatAdd                 0      0.00%     24.16% # attempts to use FU when none available
system.cpu.iq.fu_full::SimdFloatAlu                 0      0.00%     24.16% # attempts to use FU when none available
system.cpu.iq.fu_full::SimdFloatCmp                 0      0.00%     24.16% # attempts to use FU when none available
system.cpu.iq.fu_full::SimdFloatCvt                 0      0.00%     24.16% # attempts to use FU when none available
system.cpu.iq.fu_full::SimdFloatDiv                 0      0.00%     24.16% # attempts to use FU when none available
system.cpu.iq.fu_full::SimdFloatMisc                0      0.00%     24.16% # attempts to use FU when none available
system.cpu.iq.fu_full::SimdFloatMult                0      0.00%     24.16% # attempts to use FU when none available
system.cpu.iq.fu_full::SimdFloatMultAcc             0      0.00%     24.16% # attempts to use FU when none available
system.cpu.iq.fu_full::SimdFloatSqrt                0      0.00%     24.16% # attempts to use FU when none available
system.cpu.iq.fu_full::SimdReduceAdd                0      0.00%     24.16% # attempts to use FU when none available
system.cpu.iq.fu_full::SimdReduceAlu                0      0.00%     24.16% # attempts to use FU when none available
system.cpu.iq.fu_full::SimdReduceCmp                0      0.00%     24.16% # attempts to use FU when none available
system.cpu.iq.fu_full::SimdFloatReduceAdd            0      0.00%     24.16% # attempts to use FU when none available
system.cpu.iq.fu_full::SimdFloatReduceCmp            0      0.00%     24.16% # attempts to use FU when none available
system.cpu.iq.fu_full::SimdAes                      0      0.00%     24.16% # attempts to use FU when none available
system.cpu.iq.fu_full::SimdAesMix                   0      0.00%     24.16% # attempts to use FU when none available
system.cpu.iq.fu_full::SimdSha1Hash                 0      0.00%     24.16% # attempts to use FU when none available
system.cpu.iq.fu_full::SimdSha1Hash2                0      0.00%     24.16% # attempts to use FU when none available
system.cpu.iq.fu_full::SimdSha256Hash               0      0.00%     24.16% # attempts to use FU when none available
system.cpu.iq.fu_full::SimdSha256Hash2              0      0.00%     24.16% # attempts to use FU when none available
system.cpu.iq.fu_full::SimdShaSigma2                0      0.00%     24.16% # attempts to use FU when none available
system.cpu.iq.fu_full::SimdShaSigma3                0      0.00%     24.16% # attempts to use FU when none available
system.cpu.iq.fu_full::SimdPredAlu                  0      0.00%     24.16% # attempts to use FU when none available
system.cpu.iq.fu_full::MemRead                   1285     42.54%     66.70% # attempts to use FU when none available
system.cpu.iq.fu_full::MemWrite                  1006     33.30%    100.00% # attempts to use FU when none available
system.cpu.iq.fu_full::FloatMemRead                 0      0.00%    100.00% # attempts to use FU when none available
system.cpu.iq.fu_full::FloatMemWrite                0      0.00%    100.00% # attempts to use FU when none available
system.cpu.iq.fu_full::IprAccess                    0      0.00%    100.00% # attempts to use FU when none available
system.cpu.iq.fu_full::InstPrefetch                 0      0.00%    100.00% # attempts to use FU when none available
system.cpu.iq.int_alu_accesses                1117941                       # Number of integer alu accesses
system.cpu.iq.int_inst_queue_reads            3590416                       # Number of integer instruction queue reads
system.cpu.iq.int_inst_queue_wakeup_accesses      1096770                       # Number of integer instruction queue wakeup accesses
system.cpu.iq.int_inst_queue_writes           1229107                       # Number of integer instruction queue writes
system.cpu.iq.iqInstsAdded                    1129569                       # Number of instructions added to the IQ (excludes non-spec)
system.cpu.iq.iqInstsIssued                   1117590                       # Number of instructions issued
system.cpu.iq.iqNonSpecInstsAdded                 199                       # Number of non-speculative instructions added to the IQ
system.cpu.iq.iqSquashedInstsExamined          102591                       # Number of squashed instructions iterated over during squash; mainly for profiling
system.cpu.iq.iqSquashedInstsIssued               305                       # Number of squashed instructions issued
system.cpu.iq.iqSquashedNonSpecRemoved             25                       # Number of squashed non-spec instructions that were removed
system.cpu.iq.iqSquashedOperandsExamined        53313                       # Number of squashed operands that are examined and possibly removed from graph
system.cpu.iq.issued_per_cycle::samples       1357146                       # Number of insts issued each cycle
system.cpu.iq.issued_per_cycle::mean         0.823485                       # Number of insts issued each cycle
system.cpu.iq.issued_per_cycle::stdev        1.486615                       # Number of insts issued each cycle
system.cpu.iq.issued_per_cycle::underflows            0      0.00%      0.00% # Number of insts issued each cycle
system.cpu.iq.issued_per_cycle::0              982085     72.36%     72.36% # Number of insts issued each cycle
system.cpu.iq.issued_per_cycle::1               66762      4.92%     77.28% # Number of insts issued each cycle
system.cpu.iq.issued_per_cycle::2               62205      4.58%     81.87% # Number of insts issued each cycle
system.cpu.iq.issued_per_cycle::3               80857      5.96%     87.82% # Number of insts issued each cycle
system.cpu.iq.issued_per_cycle::4              151950     11.20%     99.02% # Number of insts issued each cycle
system.cpu.iq.issued_per_cycle::5                6658      0.49%     99.51% # Number of insts issued each cycle
system.cpu.iq.issued_per_cycle::6                4284      0.32%     99.83% # Number of insts issued each cycle
system.cpu.iq.issued_per_cycle::7                1707      0.13%     99.95% # Number of insts issued each cycle
system.cpu.iq.issued_per_cycle::8                 638      0.05%    100.00% # Number of insts issued each cycle
system.cpu.iq.issued_per_cycle::overflows            0      0.00%    100.00% # Number of insts issued each cycle
system.cpu.iq.issued_per_cycle::min_value            0                       # Number of insts issued each cycle
system.cpu.iq.issued_per_cycle::max_value            8                       # Number of insts issued each cycle
system.cpu.iq.issued_per_cycle::total         1357146                       # Number of insts issued each cycle
system.cpu.iq.rate                           0.769717                       # Inst issue rate
system.cpu.iq.vec_alu_accesses                   2644                       # Number of vector alu accesses
system.cpu.iq.vec_inst_queue_reads               5235                       # Number of vector instruction queue reads
system.cpu.iq.vec_inst_queue_wakeup_accesses         2275                       # Number of vector instruction queue wakeup accesses
system.cpu.iq.vec_inst_queue_writes              3287                       # Number of vector instruction queue writes
system.cpu.itb.accesses                             0                       # DTB accesses
system.cpu.itb.align_faults                         0                       # Number of TLB faults due to alignment restrictions
system.cpu.itb.domain_faults                        0                       # Number of TLB faults due to domain restrictions
system.cpu.itb.flush_entries                        0                       # Number of entries that have been flushed from TLB
system.cpu.itb.flush_tlb                            0                       # Number of times complete TLB was flushed
system.cpu.itb.flush_tlb_asid                       0                       # Number of times TLB was flushed by ASID
system.cpu.itb.flush_tlb_mva                        0                       # Number of times TLB was flushed by MVA
system.cpu.itb.flush_tlb_mva_asid                   0                       # Number of times TLB was flushed by MVA & ASID
system.cpu.itb.hits                                 0                       # DTB hits
system.cpu.itb.inst_accesses                        0                       # ITB inst accesses
system.cpu.itb.inst_hits                            0                       # ITB inst hits
system.cpu.itb.inst_misses                          0                       # ITB inst misses
system.cpu.itb.misses                               0                       # DTB misses
system.cpu.itb.perms_faults                         0                       # Number of TLB faults due to permissions restrictions
system.cpu.itb.prefetch_faults                      0                       # Number of TLB faults due to prefetch
system.cpu.itb.read_accesses                        0                       # DTB read accesses
system.cpu.itb.read_hits                            0                       # DTB read hits
system.cpu.itb.read_misses                          0                       # DTB read misses
system.cpu.itb.stage2_mmu.stage2_tlb.accesses            0                       # DTB accesses
system.cpu.itb.stage2_mmu.stage2_tlb.align_faults            0                       # Number of TLB faults due to alignment restrictions
system.cpu.itb.stage2_mmu.stage2_tlb.domain_faults            0                       # Number of TLB faults due to domain restrictions
system.cpu.itb.stage2_mmu.stage2_tlb.flush_entries            0                       # Number of entries that have been flushed from TLB
system.cpu.itb.stage2_mmu.stage2_tlb.flush_tlb            0                       # Number of times complete TLB was flushed
system.cpu.itb.stage2_mmu.stage2_tlb.flush_tlb_asid            0                       # Number of times TLB was flushed by ASID
system.cpu.itb.stage2_mmu.stage2_tlb.flush_tlb_mva            0                       # Number of times TLB was flushed by MVA
system.cpu.itb.stage2_mmu.stage2_tlb.flush_tlb_mva_asid            0                       # Number of times TLB was flushed by MVA & ASID
system.cpu.itb.stage2_mmu.stage2_tlb.hits            0                       # DTB hits
system.cpu.itb.stage2_mmu.stage2_tlb.inst_accesses            0                       # ITB inst accesses
system.cpu.itb.stage2_mmu.stage2_tlb.inst_hits            0                       # ITB inst hits
system.cpu.itb.stage2_mmu.stage2_tlb.inst_misses            0                       # ITB inst misses
system.cpu.itb.stage2_mmu.stage2_tlb.misses            0                       # DTB misses
system.cpu.itb.stage2_mmu.stage2_tlb.perms_faults            0                       # Number of TLB faults due to permissions restrictions
system.cpu.itb.stage2_mmu.stage2_tlb.prefetch_faults            0                       # Number of TLB faults due to prefetch
system.cpu.itb.stage2_mmu.stage2_tlb.read_accesses            0                       # DTB read accesses
system.cpu.itb.stage2_mmu.stage2_tlb.read_hits            0                       # DTB read hits
system.cpu.itb.stage2_mmu.stage2_tlb.read_misses            0                       # DTB read misses
system.cpu.itb.stage2_mmu.stage2_tlb.walker.walkRequestOrigin_Requested::Data            0                       # Table walker requests started/completed, data/inst
system.cpu.itb.stage2_mmu.stage2_tlb.walker.walkRequestOrigin_Requested::Inst            0                       # Table walker requests started/completed, data/inst
system.cpu.itb.stage2_mmu.stage2_tlb.walker.walkRequestOrigin_Requested::total            0                       # Table walker requests started/completed, data/inst
system.cpu.itb.stage2_mmu.stage2_tlb.walker.walkRequestOrigin_Completed::Data            0                       # Table walker requests started/completed, data/inst
system.cpu.itb.stage2_mmu.stage2_tlb.walker.walkRequestOrigin_Completed::Inst            0                       # Table walker requests started/completed, data/inst
system.cpu.itb.stage2_mmu.stage2_tlb.walker.walkRequestOrigin_Completed::total            0                       # Table walker requests started/completed, data/inst
system.cpu.itb.stage2_mmu.stage2_tlb.walker.walkRequestOrigin::total            0                       # Table walker requests started/completed, data/inst
system.cpu.itb.stage2_mmu.stage2_tlb.walker.walks            0                       # Table walker walks requested
system.cpu.itb.stage2_mmu.stage2_tlb.write_accesses            0                       # DTB write accesses
system.cpu.itb.stage2_mmu.stage2_tlb.write_hits            0                       # DTB write hits
system.cpu.itb.stage2_mmu.stage2_tlb.write_misses            0                       # DTB write misses
system.cpu.itb.walker.walkRequestOrigin_Requested::Data            0                       # Table walker requests started/completed, data/inst
system.cpu.itb.walker.walkRequestOrigin_Requested::Inst            0                       # Table walker requests started/completed, data/inst
system.cpu.itb.walker.walkRequestOrigin_Requested::total            0                       # Table walker requests started/completed, data/inst
system.cpu.itb.walker.walkRequestOrigin_Completed::Data            0                       # Table walker requests started/completed, data/inst
system.cpu.itb.walker.walkRequestOrigin_Completed::Inst            0                       # Table walker requests started/completed, data/inst
system.cpu.itb.walker.walkRequestOrigin_Completed::total            0                       # Table walker requests started/completed, data/inst
system.cpu.itb.walker.walkRequestOrigin::total            0                       # Table walker requests started/completed, data/inst
system.cpu.itb.walker.walks                         0                       # Table walker walks requested
system.cpu.itb.write_accesses                       0                       # DTB write accesses
system.cpu.itb.write_hits                           0                       # DTB write hits
system.cpu.itb.write_misses                         0                       # DTB write misses
system.cpu.memDep0.conflictingLoads              1818                       # Number of conflicting loads.
system.cpu.memDep0.conflictingStores              807                       # Number of conflicting stores.
system.cpu.memDep0.insertedLoads                40004                       # Number of loads inserted to the mem dependence unit.
system.cpu.memDep0.insertedStores              258891                       # Number of stores inserted to the mem dependence unit.
system.cpu.misc_regfile_reads                  834540                       # number of misc regfile reads
system.cpu.misc_regfile_writes                    561                       # number of misc regfile writes
system.cpu.numCycles                          1451950                       # number of cpu cycles simulated
system.cpu.numWorkItemsCompleted                    0                       # number of work items this cpu completed
system.cpu.numWorkItemsStarted                      0                       # number of work items this cpu started
system.cpu.rename.BlockCycles                   10555                       # Number of cycles rename is blocking
system.cpu.rename.CommittedMaps               1240714                       # Number of HB maps that are committed
system.cpu.rename.IQFullEvents                     45                       # Number of times rename has blocked due to IQ full
system.cpu.rename.IdleCycles                   274998                       # Number of cycles rename is idle
system.cpu.rename.LQFullEvents                    854                       # Number of times rename has blocked due to LQ full
system.cpu.rename.ROBFullEvents                     8                       # Number of times rename has blocked due to ROB full
system.cpu.rename.RenameLookups               2179937                       # Number of register rename lookups that rename has made
system.cpu.rename.RenamedInsts                1147004                       # Number of instructions processed by rename
system.cpu.rename.RenamedOperands             1381976                       # Number of destination operands rename has renamed
system.cpu.rename.RunCycles                    146656                       # Number of cycles rename is running
system.cpu.rename.SQFullEvents                 902428                       # Number of times rename has blocked due to SQ full
system.cpu.rename.SquashCycles                   4102                       # Number of cycles rename is squashing
system.cpu.rename.UnblockCycles                903879                       # Number of cycles rename is unblocking
system.cpu.rename.UndoneMaps                   141232                       # Number of HB maps that are undone due to squashing
system.cpu.rename.int_rename_lookups          1405336                       # Number of integer rename lookups
system.cpu.rename.serializeStallCycles          16956                       # count of cycles rename stalled for serializing inst
system.cpu.rename.serializingInsts                796                       # count of serializing insts renamed
system.cpu.rename.skidInsts                    397468                       # count of insts added to the skid buffer
system.cpu.rename.tempSerializingInsts            196                       # count of temporary serializing insts renamed
system.cpu.rename.vec_rename_lookups             2682                       # Number of vector rename lookups
system.cpu.rob.rob_reads                      2451275                       # The number of ROB reads
system.cpu.rob.rob_writes                     2253424                       # The number of ROB writes
system.cpu.timesIdled                            7598                       # Number of times that the entire CPU went into an idle state and unscheduled itself
system.cpu.vec_regfile_reads                     2222                       # number of vector regfile reads
system.cpu.vec_regfile_writes                     180                       # number of vector regfile writes
system.cpu.workload.numSyscalls                    35                       # Number of system calls
system.membus.snoop_filter.hit_multi_requests            0                       # Number of requests hitting in the snoop filter with multiple (>1) holders of the requested data.
system.membus.snoop_filter.hit_multi_snoops            0                       # Number of snoops hitting in the snoop filter with multiple (>1) holders of the requested data.
system.membus.snoop_filter.hit_single_requests            7                       # Number of requests hitting in the snoop filter with a single holder of the requested data.
system.membus.snoop_filter.hit_single_snoops            0                       # Number of snoops hitting in the snoop filter with a single holder of the requested data.
system.membus.snoop_filter.tot_requests         27399                       # Total number of requests made to the snoop filter.
system.membus.snoop_filter.tot_snoops               0                       # Total number of snoops made to the snoop filter.
system.tol2bus.snoop_filter.hit_multi_requests           13                       # Number of requests hitting in the snoop filter with multiple (>1) holders of the requested data.
system.tol2bus.snoop_filter.hit_multi_snoops            0                       # Number of snoops hitting in the snoop filter with multiple (>1) holders of the requested data.
system.tol2bus.snoop_filter.hit_single_requests        35576                       # Number of requests hitting in the snoop filter with a single holder of the requested data.
system.tol2bus.snoop_filter.hit_single_snoops            0                       # Number of snoops hitting in the snoop filter with a single holder of the requested data.
system.tol2bus.snoop_filter.tot_requests        72243                       # Total number of requests made to the snoop filter.
system.tol2bus.snoop_filter.tot_snoops              0                       # Total number of snoops made to the snoop filter.
system.membus.trans_dist::ReadResp                964                       # Transaction distribution
system.membus.trans_dist::WritebackDirty            1                       # Transaction distribution
system.membus.trans_dist::CleanEvict                6                       # Transaction distribution
system.membus.trans_dist::ReadExReq             26346                       # Transaction distribution
system.membus.trans_dist::ReadExResp            26346                       # Transaction distribution
system.membus.trans_dist::ReadSharedReq           964                       # Transaction distribution
system.membus.trans_dist::InvalidateReq            82                       # Transaction distribution
system.membus.pkt_count_system.l2.mem_side::system.mem_ctrls.port        54709                       # Packet count per connected master and slave (bytes)
system.membus.pkt_count::total                  54709                       # Packet count per connected master and slave (bytes)
system.membus.pkt_size_system.l2.mem_side::system.mem_ctrls.port      1747904                       # Cumulative packet size per connected master and slave (bytes)
system.membus.pkt_size::total                 1747904                       # Cumulative packet size per connected master and slave (bytes)
system.membus.snoops                                0                       # Total snoops (count)
system.membus.snoopTraffic                          0                       # Total snoop traffic (bytes)
system.membus.snoop_fanout::samples             27392                       # Request fanout histogram
system.membus.snoop_fanout::mean                    0                       # Request fanout histogram
system.membus.snoop_fanout::stdev                   0                       # Request fanout histogram
system.membus.snoop_fanout::underflows              0      0.00%      0.00% # Request fanout histogram
system.membus.snoop_fanout::0                   27392    100.00%    100.00% # Request fanout histogram
system.membus.snoop_fanout::1                       0      0.00%    100.00% # Request fanout histogram
system.membus.snoop_fanout::overflows               0      0.00%    100.00% # Request fanout histogram
system.membus.snoop_fanout::min_value               0                       # Request fanout histogram
system.membus.snoop_fanout::max_value               0                       # Request fanout histogram
system.membus.snoop_fanout::total               27392                       # Request fanout histogram
system.membus.reqLayer0.occupancy            38301500                       # Layer occupancy (ticks)
system.membus.reqLayer0.utilization               5.3                       # Layer utilization (%)
system.membus.respLayer1.occupancy          141890000                       # Layer occupancy (ticks)
system.membus.respLayer1.utilization             19.5                       # Layer utilization (%)
system.membus.power_state.pwrStateResidencyTicks::UNDEFINED    725974500                       # Cumulative time (in ticks) in various power states
system.tol2bus.trans_dist::ReadResp             10237                       # Transaction distribution
system.tol2bus.trans_dist::WritebackDirty        25473                       # Transaction distribution
system.tol2bus.trans_dist::WritebackClean         9913                       # Transaction distribution
system.tol2bus.trans_dist::CleanEvict             197                       # Transaction distribution
system.tol2bus.trans_dist::ReadExReq            26348                       # Transaction distribution
system.tol2bus.trans_dist::ReadExResp           26345                       # Transaction distribution
system.tol2bus.trans_dist::ReadCleanReq          9977                       # Transaction distribution
system.tol2bus.trans_dist::ReadSharedReq          260                       # Transaction distribution
system.tol2bus.trans_dist::InvalidateReq           82                       # Transaction distribution
system.tol2bus.trans_dist::InvalidateResp           82                       # Transaction distribution
system.tol2bus.pkt_count_system.cpu.icache.mem_side::system.l2.cpu_side        29867                       # Packet count per connected master and slave (bytes)
system.tol2bus.pkt_count_system.cpu.dcache.mem_side::system.l2.cpu_side        79040                       # Packet count per connected master and slave (bytes)
system.tol2bus.pkt_count::total                108907                       # Packet count per connected master and slave (bytes)
system.tol2bus.pkt_size_system.cpu.icache.mem_side::system.l2.cpu_side      1272960                       # Cumulative packet size per connected master and slave (bytes)
system.tol2bus.pkt_size_system.cpu.dcache.mem_side::system.l2.cpu_side      3332928                       # Cumulative packet size per connected master and slave (bytes)
system.tol2bus.pkt_size::total                4605888                       # Cumulative packet size per connected master and slave (bytes)
system.tol2bus.snoops                               7                       # Total snoops (count)
system.tol2bus.snoopTraffic                        64                       # Total snoop traffic (bytes)
system.tol2bus.snoop_fanout::samples            36674                       # Request fanout histogram
system.tol2bus.snoop_fanout::mean            0.000354                       # Request fanout histogram
system.tol2bus.snoop_fanout::stdev           0.018824                       # Request fanout histogram
system.tol2bus.snoop_fanout::underflows             0      0.00%      0.00% # Request fanout histogram
system.tol2bus.snoop_fanout::0                  36661     99.96%     99.96% # Request fanout histogram
system.tol2bus.snoop_fanout::1                     13      0.04%    100.00% # Request fanout histogram
system.tol2bus.snoop_fanout::2                      0      0.00%    100.00% # Request fanout histogram
system.tol2bus.snoop_fanout::overflows              0      0.00%    100.00% # Request fanout histogram
system.tol2bus.snoop_fanout::min_value              0                       # Request fanout histogram
system.tol2bus.snoop_fanout::max_value              1                       # Request fanout histogram
system.tol2bus.snoop_fanout::total              36674                       # Request fanout histogram
system.tol2bus.reqLayer0.occupancy           71506500                       # Layer occupancy (ticks)
system.tol2bus.reqLayer0.utilization              9.8                       # Layer utilization (%)
system.tol2bus.respLayer1.occupancy          39950496                       # Layer occupancy (ticks)
system.tol2bus.respLayer1.utilization             5.5                       # Layer utilization (%)
system.tol2bus.respLayer0.occupancy          14965500                       # Layer occupancy (ticks)
system.tol2bus.respLayer0.utilization             2.1                       # Layer utilization (%)
system.tol2bus.power_state.pwrStateResidencyTicks::UNDEFINED    725974500                       # Cumulative time (in ticks) in various power states
system.voltage_domain.voltage                       1                       # Voltage in Volts
system.clk_domain.clock                          1000                       # Clock period in ticks
system.l2.demand_hits::.cpu.inst                 9160                       # number of demand (read+write) hits
system.l2.demand_hits::.cpu.data                  114                       # number of demand (read+write) hits
system.l2.demand_hits::total                     9274                       # number of demand (read+write) hits
system.l2.overall_hits::.cpu.inst                9160                       # number of overall hits
system.l2.overall_hits::.cpu.data                 114                       # number of overall hits
system.l2.overall_hits::total                    9274                       # number of overall hits
system.l2.demand_misses::.cpu.inst                817                       # number of demand (read+write) misses
system.l2.demand_misses::.cpu.data              26494                       # number of demand (read+write) misses
system.l2.demand_misses::total                  27311                       # number of demand (read+write) misses
system.l2.overall_misses::.cpu.inst               817                       # number of overall misses
system.l2.overall_misses::.cpu.data             26494                       # number of overall misses
system.l2.overall_misses::total                 27311                       # number of overall misses
system.l2.demand_miss_latency::.cpu.inst     63887000                       # number of demand (read+write) miss cycles
system.l2.demand_miss_latency::.cpu.data   1988064500                       # number of demand (read+write) miss cycles
system.l2.demand_miss_latency::total       2051951500                       # number of demand (read+write) miss cycles
system.l2.overall_miss_latency::.cpu.inst     63887000                       # number of overall miss cycles
system.l2.overall_miss_latency::.cpu.data   1988064500                       # number of overall miss cycles
system.l2.overall_miss_latency::total      2051951500                       # number of overall miss cycles
system.l2.demand_accesses::.cpu.inst             9977                       # number of demand (read+write) accesses
system.l2.demand_accesses::.cpu.data            26608                       # number of demand (read+write) accesses
system.l2.demand_accesses::total                36585                       # number of demand (read+write) accesses
system.l2.overall_accesses::.cpu.inst            9977                       # number of overall (read+write) accesses
system.l2.overall_accesses::.cpu.data           26608                       # number of overall (read+write) accesses
system.l2.overall_accesses::total               36585                       # number of overall (read+write) accesses
system.l2.demand_miss_rate::.cpu.inst        0.081888                       # miss rate for demand accesses
system.l2.demand_miss_rate::.cpu.data        0.995716                       # miss rate for demand accesses
system.l2.demand_miss_rate::total            0.746508                       # miss rate for demand accesses
system.l2.overall_miss_rate::.cpu.inst       0.081888                       # miss rate for overall accesses
system.l2.overall_miss_rate::.cpu.data       0.995716                       # miss rate for overall accesses
system.l2.overall_miss_rate::total           0.746508                       # miss rate for overall accesses
system.l2.demand_avg_miss_latency::.cpu.inst 78197.062424                       # average overall miss latency
system.l2.demand_avg_miss_latency::.cpu.data 75038.291689                       # average overall miss latency
system.l2.demand_avg_miss_latency::total 75132.785325                       # average overall miss latency
system.l2.overall_avg_miss_latency::.cpu.inst 78197.062424                       # average overall miss latency
system.l2.overall_avg_miss_latency::.cpu.data 75038.291689                       # average overall miss latency
system.l2.overall_avg_miss_latency::total 75132.785325                       # average overall miss latency
system.l2.blocked_cycles::no_mshrs                  0                       # number of cycles access was blocked
system.l2.blocked_cycles::no_targets                0                       # number of cycles access was blocked
system.l2.blocked::no_mshrs                         0                       # number of cycles access was blocked
system.l2.blocked::no_targets                       0                       # number of cycles access was blocked
system.l2.avg_blocked_cycles::no_mshrs            nan                       # average number of cycles each access was blocked
system.l2.avg_blocked_cycles::no_targets          nan                       # average number of cycles each access was blocked
system.l2.writebacks::.writebacks                   1                       # number of writebacks
system.l2.writebacks::total                         1                       # number of writebacks
system.l2.demand_mshr_misses::.cpu.inst           817                       # number of demand (read+write) MSHR misses
system.l2.demand_mshr_misses::.cpu.data         26494                       # number of demand (read+write) MSHR misses
system.l2.demand_mshr_misses::total             27311                       # number of demand (read+write) MSHR misses
system.l2.overall_mshr_misses::.cpu.inst          817                       # number of overall MSHR misses
system.l2.overall_mshr_misses::.cpu.data        26494                       # number of overall MSHR misses
system.l2.overall_mshr_misses::total            27311                       # number of overall MSHR misses
system.l2.demand_mshr_miss_latency::.cpu.inst     55717000                       # number of demand (read+write) MSHR miss cycles
system.l2.demand_mshr_miss_latency::.cpu.data   1723134500                       # number of demand (read+write) MSHR miss cycles
system.l2.demand_mshr_miss_latency::total   1778851500                       # number of demand (read+write) MSHR miss cycles
system.l2.overall_mshr_miss_latency::.cpu.inst     55717000                       # number of overall MSHR miss cycles
system.l2.overall_mshr_miss_latency::.cpu.data   1723134500                       # number of overall MSHR miss cycles
system.l2.overall_mshr_miss_latency::total   1778851500                       # number of overall MSHR miss cycles
system.l2.demand_mshr_miss_rate::.cpu.inst     0.081888                       # mshr miss rate for demand accesses
system.l2.demand_mshr_miss_rate::.cpu.data     0.995716                       # mshr miss rate for demand accesses
system.l2.demand_mshr_miss_rate::total       0.746508                       # mshr miss rate for demand accesses
system.l2.overall_mshr_miss_rate::.cpu.inst     0.081888                       # mshr miss rate for overall accesses
system.l2.overall_mshr_miss_rate::.cpu.data     0.995716                       # mshr miss rate for overall accesses
system.l2.overall_mshr_miss_rate::total      0.746508                       # mshr miss rate for overall accesses
system.l2.demand_avg_mshr_miss_latency::.cpu.inst 68197.062424                       # average overall mshr miss latency
system.l2.demand_avg_mshr_miss_latency::.cpu.data 65038.669133                       # average overall mshr miss latency
system.l2.demand_avg_mshr_miss_latency::total 65133.151477                       # average overall mshr miss latency
system.l2.overall_avg_mshr_miss_latency::.cpu.inst 68197.062424                       # average overall mshr miss latency
system.l2.overall_avg_mshr_miss_latency::.cpu.data 65038.669133                       # average overall mshr miss latency
system.l2.overall_avg_mshr_miss_latency::total 65133.151477                       # average overall mshr miss latency
system.l2.replacements                              7                       # number of replacements
system.l2.WritebackDirty_hits::.writebacks        25472                       # number of WritebackDirty hits
system.l2.WritebackDirty_hits::total            25472                       # number of WritebackDirty hits
system.l2.WritebackDirty_accesses::.writebacks        25472                       # number of WritebackDirty accesses(hits+misses)
system.l2.WritebackDirty_accesses::total        25472                       # number of WritebackDirty accesses(hits+misses)
system.l2.WritebackClean_hits::.writebacks         9900                       # number of WritebackClean hits
system.l2.WritebackClean_hits::total             9900                       # number of WritebackClean hits
system.l2.WritebackClean_accesses::.writebacks         9900                       # number of WritebackClean accesses(hits+misses)
system.l2.WritebackClean_accesses::total         9900                       # number of WritebackClean accesses(hits+misses)
system.l2.ReadExReq_hits::.cpu.data                 1                       # number of ReadExReq hits
system.l2.ReadExReq_hits::total                     1                       # number of ReadExReq hits
system.l2.ReadExReq_misses::.cpu.data           26347                       # number of ReadExReq misses
system.l2.ReadExReq_misses::total               26347                       # number of ReadExReq misses
system.l2.ReadExReq_miss_latency::.cpu.data   1975967000                       # number of ReadExReq miss cycles
system.l2.ReadExReq_miss_latency::total    1975967000                       # number of ReadExReq miss cycles
system.l2.ReadExReq_accesses::.cpu.data         26348                       # number of ReadExReq accesses(hits+misses)
system.l2.ReadExReq_accesses::total             26348                       # number of ReadExReq accesses(hits+misses)
system.l2.ReadExReq_miss_rate::.cpu.data     0.999962                       # miss rate for ReadExReq accesses
system.l2.ReadExReq_miss_rate::total         0.999962                       # miss rate for ReadExReq accesses
system.l2.ReadExReq_avg_miss_latency::.cpu.data 74997.798611                       # average ReadExReq miss latency
system.l2.ReadExReq_avg_miss_latency::total 74997.798611                       # average ReadExReq miss latency
system.l2.ReadExReq_mshr_misses::.cpu.data        26347                       # number of ReadExReq MSHR misses
system.l2.ReadExReq_mshr_misses::total          26347                       # number of ReadExReq MSHR misses
system.l2.ReadExReq_mshr_miss_latency::.cpu.data   1712507000                       # number of ReadExReq MSHR miss cycles
system.l2.ReadExReq_mshr_miss_latency::total   1712507000                       # number of ReadExReq MSHR miss cycles
system.l2.ReadExReq_mshr_miss_rate::.cpu.data     0.999962                       # mshr miss rate for ReadExReq accesses
system.l2.ReadExReq_mshr_miss_rate::total     0.999962                       # mshr miss rate for ReadExReq accesses
system.l2.ReadExReq_avg_mshr_miss_latency::.cpu.data 64998.178161                       # average ReadExReq mshr miss latency
system.l2.ReadExReq_avg_mshr_miss_latency::total 64998.178161                       # average ReadExReq mshr miss latency
system.l2.ReadCleanReq_hits::.cpu.inst           9160                       # number of ReadCleanReq hits
system.l2.ReadCleanReq_hits::total               9160                       # number of ReadCleanReq hits
system.l2.ReadCleanReq_misses::.cpu.inst          817                       # number of ReadCleanReq misses
system.l2.ReadCleanReq_misses::total              817                       # number of ReadCleanReq misses
system.l2.ReadCleanReq_miss_latency::.cpu.inst     63887000                       # number of ReadCleanReq miss cycles
system.l2.ReadCleanReq_miss_latency::total     63887000                       # number of ReadCleanReq miss cycles
system.l2.ReadCleanReq_accesses::.cpu.inst         9977                       # number of ReadCleanReq accesses(hits+misses)
system.l2.ReadCleanReq_accesses::total           9977                       # number of ReadCleanReq accesses(hits+misses)
system.l2.ReadCleanReq_miss_rate::.cpu.inst     0.081888                       # miss rate for ReadCleanReq accesses
system.l2.ReadCleanReq_miss_rate::total      0.081888                       # miss rate for ReadCleanReq accesses
system.l2.ReadCleanReq_avg_miss_latency::.cpu.inst 78197.062424                       # average ReadCleanReq miss latency
system.l2.ReadCleanReq_avg_miss_latency::total 78197.062424                       # average ReadCleanReq miss latency
system.l2.ReadCleanReq_mshr_misses::.cpu.inst          817                       # number of ReadCleanReq MSHR misses
system.l2.ReadCleanReq_mshr_misses::total          817                       # number of ReadCleanReq MSHR misses
system.l2.ReadCleanReq_mshr_miss_latency::.cpu.inst     55717000                       # number of ReadCleanReq MSHR miss cycles
system.l2.ReadCleanReq_mshr_miss_latency::total     55717000                       # number of ReadCleanReq MSHR miss cycles
[...]
system.cpu.dcache.overall_miss_latency::total  13175434336                       # number of overall miss cycles
system.cpu.dcache.demand_accesses::.cpu.data       272617                       # number of demand (read+write) accesses
system.cpu.dcache.demand_accesses::total       272617                       # number of demand (read+write) accesses
system.cpu.dcache.overall_accesses::.cpu.data       272756                       # number of overall (read+write) accesses
system.cpu.dcache.overall_accesses::total       272756                       # number of overall (read+write) accesses
system.cpu.dcache.demand_miss_rate::.cpu.data     0.773026                       # miss rate for demand accesses
system.cpu.dcache.demand_miss_rate::total     0.773026                       # miss rate for demand accesses
system.cpu.dcache.overall_miss_rate::.cpu.data     0.772658                       # miss rate for overall accesses
system.cpu.dcache.overall_miss_rate::total     0.772658                       # miss rate for overall accesses
system.cpu.dcache.demand_avg_miss_latency::.cpu.data 62519.855443                       # average overall miss latency
system.cpu.dcache.demand_avg_miss_latency::total 62519.855443                       # average overall miss latency
system.cpu.dcache.overall_avg_miss_latency::.cpu.data 62517.778834                       # average overall miss latency
system.cpu.dcache.overall_avg_miss_latency::total 62517.778834                       # average overall miss latency
system.cpu.dcache.blocked_cycles::no_mshrs       889983                       # number of cycles access was blocked
system.cpu.dcache.blocked_cycles::no_targets            0                       # number of cycles access was blocked
system.cpu.dcache.blocked::no_mshrs             23163                       # number of cycles access was blocked
system.cpu.dcache.blocked::no_targets               0                       # number of cycles access was blocked
system.cpu.dcache.avg_blocked_cycles::no_mshrs    38.422614                       # average number of cycles each access was blocked
system.cpu.dcache.avg_blocked_cycles::no_targets          nan                       # average number of cycles each access was blocked
system.cpu.dcache.writebacks::.writebacks        25472                       # number of writebacks
system.cpu.dcache.writebacks::total             25472                       # number of writebacks
system.cpu.dcache.demand_mshr_hits::.cpu.data       184058                       # number of demand (read+write) MSHR hits
system.cpu.dcache.demand_mshr_hits::total       184058                       # number of demand (read+write) MSHR hits
system.cpu.dcache.overall_mshr_hits::.cpu.data       184058                       # number of overall MSHR hits
system.cpu.dcache.overall_mshr_hits::total       184058                       # number of overall MSHR hits
system.cpu.dcache.demand_mshr_misses::.cpu.data        26682                       # number of demand (read+write) MSHR misses
system.cpu.dcache.demand_mshr_misses::total        26682                       # number of demand (read+write) MSHR misses
system.cpu.dcache.overall_mshr_misses::.cpu.data        26689                       # number of overall MSHR misses
system.cpu.dcache.overall_mshr_misses::total        26689                       # number of overall MSHR misses
system.cpu.dcache.demand_mshr_miss_latency::.cpu.data   2038407465                       # number of demand (read+write) MSHR miss cycles
system.cpu.dcache.demand_mshr_miss_latency::total   2038407465                       # number of demand (read+write) MSHR miss cycles
system.cpu.dcache.overall_mshr_miss_latency::.cpu.data   2038933965                       # number of overall MSHR miss cycles
system.cpu.dcache.overall_mshr_miss_latency::total   2038933965                       # number of overall MSHR miss cycles
system.cpu.dcache.demand_mshr_miss_rate::.cpu.data     0.097874                       # mshr miss rate for demand accesses
system.cpu.dcache.demand_mshr_miss_rate::total     0.097874                       # mshr miss rate for demand accesses
system.cpu.dcache.overall_mshr_miss_rate::.cpu.data     0.097849                       # mshr miss rate for overall accesses
system.cpu.dcache.overall_mshr_miss_rate::total     0.097849                       # mshr miss rate for overall accesses
system.cpu.dcache.demand_avg_mshr_miss_latency::.cpu.data 76396.352035                       # average overall mshr miss latency
system.cpu.dcache.demand_avg_mshr_miss_latency::total 76396.352035                       # average overall mshr miss latency
system.cpu.dcache.overall_avg_mshr_miss_latency::.cpu.data 76396.042002                       # average overall mshr miss latency
system.cpu.dcache.overall_avg_mshr_miss_latency::total 76396.042002                       # average overall mshr miss latency
system.cpu.dcache.replacements                  25663                       # number of replacements
system.cpu.dcache.ReadReq_hits::.cpu.data        35610                       # number of ReadReq hits
system.cpu.dcache.ReadReq_hits::total           35610                       # number of ReadReq hits
system.cpu.dcache.ReadReq_misses::.cpu.data          545                       # number of ReadReq misses
system.cpu.dcache.ReadReq_misses::total           545                       # number of ReadReq misses
system.cpu.dcache.ReadReq_miss_latency::.cpu.data     28660000                       # number of ReadReq miss cycles
system.cpu.dcache.ReadReq_miss_latency::total     28660000                       # number of ReadReq miss cycles
system.cpu.dcache.ReadReq_accesses::.cpu.data        36155                       # number of ReadReq accesses(hits+misses)
system.cpu.dcache.ReadReq_accesses::total        36155                       # number of ReadReq accesses(hits+misses)
system.cpu.dcache.ReadReq_miss_rate::.cpu.data     0.015074                       # miss rate for ReadReq accesses
system.cpu.dcache.ReadReq_miss_rate::total     0.015074                       # miss rate for ReadReq accesses
system.cpu.dcache.ReadReq_avg_miss_latency::.cpu.data 52587.155963                       # average ReadReq miss latency
system.cpu.dcache.ReadReq_avg_miss_latency::total 52587.155963                       # average ReadReq miss latency
system.cpu.dcache.ReadReq_mshr_hits::.cpu.data          293                       # number of ReadReq MSHR hits
system.cpu.dcache.ReadReq_mshr_hits::total          293                       # number of ReadReq MSHR hits
system.cpu.dcache.ReadReq_mshr_misses::.cpu.data          252                       # number of ReadReq MSHR misses
system.cpu.dcache.ReadReq_mshr_misses::total          252                       # number of ReadReq MSHR misses
system.cpu.dcache.ReadReq_mshr_miss_latency::.cpu.data     13069000                       # number of ReadReq MSHR miss cycles
system.cpu.dcache.ReadReq_mshr_miss_latency::total     13069000                       # number of ReadReq MSHR miss cycles
system.cpu.dcache.ReadReq_mshr_miss_rate::.cpu.data     0.006970                       # mshr miss rate for ReadReq accesses
system.cpu.dcache.ReadReq_mshr_miss_rate::total     0.006970                       # mshr miss rate for ReadReq accesses
system.cpu.dcache.ReadReq_avg_mshr_miss_latency::.cpu.data 51861.111111                       # average ReadReq mshr miss latency
system.cpu.dcache.ReadReq_avg_mshr_miss_latency::total 51861.111111                       # average ReadReq mshr miss latency
system.cpu.dcache.WriteReq_hits::.cpu.data        26223                       # number of WriteReq hits
system.cpu.dcache.WriteReq_hits::total          26223                       # number of WriteReq hits
system.cpu.dcache.WriteReq_misses::.cpu.data       210137                       # number of WriteReq misses
system.cpu.dcache.WriteReq_misses::total       210137                       # number of WriteReq misses
system.cpu.dcache.WriteReq_miss_latency::.cpu.data  13144935866                       # number of WriteReq miss cycles
system.cpu.dcache.WriteReq_miss_latency::total  13144935866                       # number of WriteReq miss cycles
system.cpu.dcache.WriteReq_accesses::.cpu.data       236360                       # number of WriteReq accesses(hits+misses)
system.cpu.dcache.WriteReq_accesses::total       236360                       # number of WriteReq accesses(hits+misses)
system.cpu.dcache.WriteReq_miss_rate::.cpu.data     0.889055                       # miss rate for WriteReq accesses
system.cpu.dcache.WriteReq_miss_rate::total     0.889055                       # miss rate for WriteReq accesses
system.cpu.dcache.WriteReq_avg_miss_latency::.cpu.data 62554.123577                       # average WriteReq miss latency
system.cpu.dcache.WriteReq_avg_miss_latency::total 62554.123577                       # average WriteReq miss latency
system.cpu.dcache.WriteReq_mshr_hits::.cpu.data       183765                       # number of WriteReq MSHR hits
system.cpu.dcache.WriteReq_mshr_hits::total       183765                       # number of WriteReq MSHR hits
system.cpu.dcache.WriteReq_mshr_misses::.cpu.data        26372                       # number of WriteReq MSHR misses
system.cpu.dcache.WriteReq_mshr_misses::total        26372                       # number of WriteReq MSHR misses
system.cpu.dcache.WriteReq_mshr_miss_latency::.cpu.data   2023557995                       # number of WriteReq MSHR miss cycles
system.cpu.dcache.WriteReq_mshr_miss_latency::total   2023557995                       # number of WriteReq MSHR miss cycles
system.cpu.dcache.WriteReq_mshr_miss_rate::.cpu.data     0.111576                       # mshr miss rate for WriteReq accesses
system.cpu.dcache.WriteReq_mshr_miss_rate::total     0.111576                       # mshr miss rate for WriteReq accesses
system.cpu.dcache.WriteReq_avg_mshr_miss_latency::.cpu.data 76731.305741                       # average WriteReq mshr miss latency
system.cpu.dcache.WriteReq_avg_mshr_miss_latency::total 76731.305741                       # average WriteReq mshr miss latency
system.cpu.dcache.SoftPFReq_hits::.cpu.data          132                       # number of SoftPFReq hits
system.cpu.dcache.SoftPFReq_hits::total           132                       # number of SoftPFReq hits
system.cpu.dcache.SoftPFReq_misses::.cpu.data            7                       # number of SoftPFReq misses
system.cpu.dcache.SoftPFReq_misses::total            7                       # number of SoftPFReq misses
system.cpu.dcache.SoftPFReq_accesses::.cpu.data          139                       # number of SoftPFReq accesses(hits+misses)
system.cpu.dcache.SoftPFReq_accesses::total          139                       # number of SoftPFReq accesses(hits+misses)
system.cpu.dcache.SoftPFReq_miss_rate::.cpu.data     0.050360                       # miss rate for SoftPFReq accesses
system.cpu.dcache.SoftPFReq_miss_rate::total     0.050360                       # miss rate for SoftPFReq accesses
system.cpu.dcache.SoftPFReq_mshr_misses::.cpu.data            7                       # number of SoftPFReq MSHR misses
system.cpu.dcache.SoftPFReq_mshr_misses::total            7                       # number of SoftPFReq MSHR misses
system.cpu.dcache.SoftPFReq_mshr_miss_latency::.cpu.data       526500                       # number of SoftPFReq MSHR miss cycles
system.cpu.dcache.SoftPFReq_mshr_miss_latency::total       526500                       # number of SoftPFReq MSHR miss cycles
system.cpu.dcache.SoftPFReq_mshr_miss_rate::.cpu.data     0.050360                       # mshr miss rate for SoftPFReq accesses
system.cpu.dcache.SoftPFReq_mshr_miss_rate::total     0.050360                       # mshr miss rate for SoftPFReq accesses
system.cpu.dcache.SoftPFReq_avg_mshr_miss_latency::.cpu.data 75214.285714                       # average SoftPFReq mshr miss latency
system.cpu.dcache.SoftPFReq_avg_mshr_miss_latency::total 75214.285714                       # average SoftPFReq mshr miss latency
system.cpu.dcache.WriteLineReq_hits::.cpu.data           44                       # number of WriteLineReq hits
system.cpu.dcache.WriteLineReq_hits::total           44                       # number of WriteLineReq hits
system.cpu.dcache.WriteLineReq_misses::.cpu.data           58                       # number of WriteLineReq misses
system.cpu.dcache.WriteLineReq_misses::total           58                       # number of WriteLineReq misses
system.cpu.dcache.WriteLineReq_miss_latency::.cpu.data      1838470                       # number of WriteLineReq miss cycles
system.cpu.dcache.WriteLineReq_miss_latency::total      1838470                       # number of WriteLineReq miss cycles
system.cpu.dcache.WriteLineReq_accesses::.cpu.data          102                       # number of WriteLineReq accesses(hits+misses)
system.cpu.dcache.WriteLineReq_accesses::total          102                       # number of WriteLineReq accesses(hits+misses)
system.cpu.dcache.WriteLineReq_miss_rate::.cpu.data     0.568627                       # miss rate for WriteLineReq accesses
system.cpu.dcache.WriteLineReq_miss_rate::total     0.568627                       # miss rate for WriteLineReq accesses
system.cpu.dcache.WriteLineReq_avg_miss_latency::.cpu.data 31697.758621                       # average WriteLineReq miss latency
system.cpu.dcache.WriteLineReq_avg_miss_latency::total 31697.758621                       # average WriteLineReq miss latency
system.cpu.dcache.WriteLineReq_mshr_misses::.cpu.data           58                       # number of WriteLineReq MSHR misses
system.cpu.dcache.WriteLineReq_mshr_misses::total           58                       # number of WriteLineReq MSHR misses
system.cpu.dcache.WriteLineReq_mshr_miss_latency::.cpu.data      1780470                       # number of WriteLineReq MSHR miss cycles
system.cpu.dcache.WriteLineReq_mshr_miss_latency::total      1780470                       # number of WriteLineReq MSHR miss cycles
system.cpu.dcache.WriteLineReq_mshr_miss_rate::.cpu.data     0.568627                       # mshr miss rate for WriteLineReq accesses
system.cpu.dcache.WriteLineReq_mshr_miss_rate::total     0.568627                       # mshr miss rate for WriteLineReq accesses
system.cpu.dcache.WriteLineReq_avg_mshr_miss_latency::.cpu.data 30697.758621                       # average WriteLineReq mshr miss latency
system.cpu.dcache.WriteLineReq_avg_mshr_miss_latency::total 30697.758621                       # average WriteLineReq mshr miss latency
system.cpu.dcache.LoadLockedReq_hits::.cpu.data          157                       # number of LoadLockedReq hits
system.cpu.dcache.LoadLockedReq_hits::total          157                       # number of LoadLockedReq hits
system.cpu.dcache.LoadLockedReq_misses::.cpu.data            2                       # number of LoadLockedReq misses
system.cpu.dcache.LoadLockedReq_misses::total            2                       # number of LoadLockedReq misses
system.cpu.dcache.LoadLockedReq_miss_latency::.cpu.data       173000                       # number of LoadLockedReq miss cycles
system.cpu.dcache.LoadLockedReq_miss_latency::total       173000                       # number of LoadLockedReq miss cycles
system.cpu.dcache.LoadLockedReq_accesses::.cpu.data          159                       # number of LoadLockedReq accesses(hits+misses)
system.cpu.dcache.LoadLockedReq_accesses::total          159                       # number of LoadLockedReq accesses(hits+misses)
system.cpu.dcache.LoadLockedReq_miss_rate::.cpu.data     0.012579                       # miss rate for LoadLockedReq accesses
system.cpu.dcache.LoadLockedReq_miss_rate::total     0.012579                       # miss rate for LoadLockedReq accesses
system.cpu.dcache.LoadLockedReq_avg_miss_latency::.cpu.data        86500                       # average LoadLockedReq miss latency
system.cpu.dcache.LoadLockedReq_avg_miss_latency::total        86500                       # average LoadLockedReq miss latency
system.cpu.dcache.LoadLockedReq_mshr_hits::.cpu.data            1                       # number of LoadLockedReq MSHR hits
system.cpu.dcache.LoadLockedReq_mshr_hits::total            1                       # number of LoadLockedReq MSHR hits
system.cpu.dcache.LoadLockedReq_mshr_misses::.cpu.data            1                       # number of LoadLockedReq MSHR misses
system.cpu.dcache.LoadLockedReq_mshr_misses::total            1                       # number of LoadLockedReq MSHR misses
system.cpu.dcache.LoadLockedReq_mshr_miss_latency::.cpu.data        85000                       # number of LoadLockedReq MSHR miss cycles
system.cpu.dcache.LoadLockedReq_mshr_miss_latency::total        85000                       # number of LoadLockedReq MSHR miss cycles
system.cpu.dcache.LoadLockedReq_mshr_miss_rate::.cpu.data     0.006289                       # mshr miss rate for LoadLockedReq accesses
system.cpu.dcache.LoadLockedReq_mshr_miss_rate::total     0.006289                       # mshr miss rate for LoadLockedReq accesses
system.cpu.dcache.LoadLockedReq_avg_mshr_miss_latency::.cpu.data        85000                       # average LoadLockedReq mshr miss latency
system.cpu.dcache.LoadLockedReq_avg_mshr_miss_latency::total        85000                       # average LoadLockedReq mshr miss latency
system.cpu.dcache.StoreCondReq_hits::.cpu.data          138                       # number of StoreCondReq hits
system.cpu.dcache.StoreCondReq_hits::total          138                       # number of StoreCondReq hits
system.cpu.dcache.StoreCondReq_accesses::.cpu.data          138                       # number of StoreCondReq accesses(hits+misses)
system.cpu.dcache.StoreCondReq_accesses::total          138                       # number of StoreCondReq accesses(hits+misses)
system.cpu.dcache.power_state.pwrStateResidencyTicks::UNDEFINED    725974500                       # Cumulative time (in ticks) in various power states
system.cpu.dcache.tags.tagsinuse           834.027578                       # Cycle average of tags in use
system.cpu.dcache.tags.total_refs               88991                       # Total number of references to valid blocks.
system.cpu.dcache.tags.sampled_refs             26687                       # Sample count of references to valid blocks.
system.cpu.dcache.tags.avg_refs              3.334620                       # Average number of references to valid blocks.
system.cpu.dcache.tags.warmup_cycle            176500                       # Cycle when the warmup percentage was hit.
system.cpu.dcache.tags.occ_blocks::.cpu.data   834.027578                       # Average occupied blocks per requestor
system.cpu.dcache.tags.occ_percent::.cpu.data     0.814480                       # Average percentage of cache occupancy
system.cpu.dcache.tags.occ_percent::total     0.814480                       # Average percentage of cache occupancy
system.cpu.dcache.tags.occ_task_id_blocks::1024         1024                       # Occupied blocks per task id
system.cpu.dcache.tags.age_task_id_blocks_1024::0          478                       # Occupied blocks per task id
system.cpu.dcache.tags.age_task_id_blocks_1024::1          546                       # Occupied blocks per task id
system.cpu.dcache.tags.occ_task_id_percent::1024            1                       # Percentage of cache occupancy per task id
system.cpu.dcache.tags.tag_accesses            572793                       # Number of tag accesses
system.cpu.dcache.tags.data_accesses           572793                       # Number of data accesses
system.cpu.dcache.tags.power_state.pwrStateResidencyTicks::UNDEFINED    725974500                       # Cumulative time (in ticks) in various power states
system.cpu.power_state.pwrStateResidencyTicks::ON    725974500                       # Cumulative time (in ticks) in various power states

---------- End Simulation Statistics   ----------
