
---------- Begin Simulation Statistics ----------
final_tick                                  793378000                       # Number of ticks from beginning of simulation (restored from checkpoints and never reset)
host_inst_rate                                  73812                       # Simulator instruction rate (inst/s)
host_mem_usage                                 861716                       # Number of bytes of host memory used
host_op_rate                                    82207                       # Simulator op (including micro ops) rate (op/s)
host_seconds                                    13.55                       # Real time elapsed on the host
host_tick_rate                               58559840                       # Simulator tick rate (ticks/s)
sim_freq                                 1000000000000                       # Frequency of simulated ticks
sim_insts                                     1000000                       # Number of instructions simulated
sim_ops                                       1113757                       # Number of ops (including micro ops) simulated
sim_seconds                                  0.000793                       # Number of seconds simulated
sim_ticks                                   793378000                       # Number of ticks simulated
system.cpu.branchPred.BTBCorrect                    0                       # Number of correct BTB predictions (this stat may not work properly.
system.cpu.branchPred.BTBHitPct             97.624701                       # BTB Hit Percentage
system.cpu.branchPred.BTBHits                   97448                       # Number of BTB hits
system.cpu.branchPred.BTBLookups                99819                       # Number of BTB lookups
system.cpu.branchPred.RASInCorrect                  0                       # Number of incorrect RAS predictions.
system.cpu.branchPred.condIncorrect              4812                       # Number of conditional branches incorrect
system.cpu.branchPred.condPredicted            155081                       # Number of conditional branches predicted
system.cpu.branchPred.indirectHits               3409                       # Number of indirect target hits.
system.cpu.branchPred.indirectLookups            3596                       # Number of indirect predictor lookups.
system.cpu.branchPred.indirectMisses              187                       # Number of indirect misses.
system.cpu.branchPred.lookups                  208451                       # Number of BP lookups
system.cpu.branchPred.usedRAS                   18566                       # Number of times the RAS was used to get a target.
system.cpu.branchPredindirectMispredicted           55                       # Number of mispredicted indirect branches.
system.cpu.cc_regfile_reads                    352323                       # number of cc regfile reads
system.cpu.cc_regfile_writes                   353057                       # number of cc regfile writes
system.cpu.commit.amos                              0                       # Number of atomic instructions committed
system.cpu.commit.branchMispredicts              4286                       # The number of times a branch was mispredicted
system.cpu.commit.branches                     187499                       # Number of branches committed
system.cpu.commit.bw_lim_events                 39846                       # number cycles where commit BW limit reached
system.cpu.commit.commitNonSpecStalls            1151                       # The number of times commit has been forced to stall to communicate backwards
system.cpu.commit.commitSquashedInsts           49570                       # The number of squashed insts skipped by commit
system.cpu.commit.committedInsts              1000848                       # Number of instructions committed
system.cpu.commit.committedOps                1114605                       # Number of ops (including micro ops) committed
system.cpu.commit.committed_per_cycle::samples      1390209                       # Number of insts commited each cycle
system.cpu.commit.committed_per_cycle::mean     0.801754                       # Number of insts commited each cycle
system.cpu.commit.committed_per_cycle::stdev     1.716626                       # Number of insts commited each cycle
system.cpu.commit.committed_per_cycle::underflows            0      0.00%      0.00% # Number of insts commited each cycle
system.cpu.commit.committed_per_cycle::0       980011     70.49%     70.49% # Number of insts commited each cycle
system.cpu.commit.committed_per_cycle::1       161002     11.58%     82.07% # Number of insts commited each cycle
system.cpu.commit.committed_per_cycle::2       100621      7.24%     89.31% # Number of insts commited each cycle
system.cpu.commit.committed_per_cycle::3        52519      3.78%     93.09% # Number of insts commited each cycle
system.cpu.commit.committed_per_cycle::4        22619      1.63%     94.72% # Number of insts commited each cycle
system.cpu.commit.committed_per_cycle::5        20323      1.46%     96.18% # Number of insts commited each cycle
system.cpu.commit.committed_per_cycle::6         8931      0.64%     96.82% # Number of insts commited each cycle
system.cpu.commit.committed_per_cycle::7         4337      0.31%     97.13% # Number of insts commited each cycle
system.cpu.commit.committed_per_cycle::8        39846      2.87%    100.00% # Number of insts commited each cycle
system.cpu.commit.committed_per_cycle::overflows            0      0.00%    100.00% # Number of insts commited each cycle
system.cpu.commit.committed_per_cycle::min_value            0                       # Number of insts commited each cycle
system.cpu.commit.committed_per_cycle::max_value            8                       # Number of insts commited each cycle
system.cpu.commit.committed_per_cycle::total      1390209                       # Number of insts commited each cycle
system.cpu.commit.fp_insts                          0                       # Number of committed floating point instructions.
system.cpu.commit.function_calls                18322                       # Number of function calls committed.
system.cpu.commit.int_insts                    994638                       # Number of committed integer instructions.
system.cpu.commit.loads                        162174                       # Number of loads committed
system.cpu.commit.membars                        1143                       # Number of memory barriers committed
system.cpu.commit.op_class_0::No_OpClass         1144      0.10%      0.10% # Class of committed instruction
system.cpu.commit.op_class_0::IntAlu           756750     67.89%     68.00% # Class of committed instruction
system.cpu.commit.op_class_0::IntMult           22606      2.03%     70.02% # Class of committed instruction
system.cpu.commit.op_class_0::IntDiv                3      0.00%     70.03% # Class of committed instruction
system.cpu.commit.op_class_0::FloatAdd              0      0.00%     70.03% # Class of committed instruction
system.cpu.commit.op_class_0::FloatCmp           1136      0.10%     70.13% # Class of committed instruction
system.cpu.commit.op_class_0::FloatCvt            568      0.05%     70.18% # Class of committed instruction
system.cpu.commit.op_class_0::FloatMult             0      0.00%     70.18% # Class of committed instruction
system.cpu.commit.op_class_0::FloatMultAcc            0      0.00%     70.18% # Class of committed instruction
system.cpu.commit.op_class_0::FloatDiv            568      0.05%     70.23% # Class of committed instruction
system.cpu.commit.op_class_0::FloatMisc          2272      0.20%     70.43% # Class of committed instruction
system.cpu.commit.op_class_0::FloatSqrt             0      0.00%     70.43% # Class of committed instruction
system.cpu.commit.op_class_0::SimdAdd            2300      0.21%     70.64% # Class of committed instruction
system.cpu.commit.op_class_0::SimdAddAcc            0      0.00%     70.64% # Class of committed instruction
system.cpu.commit.op_class_0::SimdAlu            4573      0.41%     71.05% # Class of committed instruction
system.cpu.commit.op_class_0::SimdCmp            4576      0.41%     71.46% # Class of committed instruction
system.cpu.commit.op_class_0::SimdCvt               0      0.00%     71.46% # Class of committed instruction
system.cpu.commit.op_class_0::SimdMisc           3433      0.31%     71.77% # Class of committed instruction
system.cpu.commit.op_class_0::SimdMult              0      0.00%     71.77% # Class of committed instruction
system.cpu.commit.op_class_0::SimdMultAcc            0      0.00%     71.77% # Class of committed instruction
system.cpu.commit.op_class_0::SimdShift             0      0.00%     71.77% # Class of committed instruction
system.cpu.commit.op_class_0::SimdShiftAcc            0      0.00%     71.77% # Class of committed instruction
system.cpu.commit.op_class_0::SimdDiv               0      0.00%     71.77% # Class of committed instruction
system.cpu.commit.op_class_0::SimdSqrt              0      0.00%     71.77% # Class of committed instruction
system.cpu.commit.op_class_0::SimdFloatAdd            0      0.00%     71.77% # Class of committed instruction
system.cpu.commit.op_class_0::SimdFloatAlu            0      0.00%     71.77% # Class of committed instruction
system.cpu.commit.op_class_0::SimdFloatCmp            0      0.00%     71.77% # Class of committed instruction
system.cpu.commit.op_class_0::SimdFloatCvt            0      0.00%     71.77% # Class of committed instruction
system.cpu.commit.op_class_0::SimdFloatDiv            0      0.00%     71.77% # Class of committed instruction
system.cpu.commit.op_class_0::SimdFloatMisc            0      0.00%     71.77% # Class of committed instruction
system.cpu.commit.op_class_0::SimdFloatMult            0      0.00%     71.77% # Class of committed instruction
system.cpu.commit.op_class_0::SimdFloatMultAcc            0      0.00%     71.77% # Class of committed instruction
system.cpu.commit.op_class_0::SimdFloatSqrt            0      0.00%     71.77% # Class of committed instruction
system.cpu.commit.op_class_0::SimdReduceAdd            0      0.00%     71.77% # Class of committed instruction
system.cpu.commit.op_class_0::SimdReduceAlu            0      0.00%     71.77% # Class of committed instruction
system.cpu.commit.op_class_0::SimdReduceCmp            0      0.00%     71.77% # Class of committed instruction
system.cpu.commit.op_class_0::SimdFloatReduceAdd            0      0.00%     71.77% # Class of committed instruction
system.cpu.commit.op_class_0::SimdFloatReduceCmp            0      0.00%     71.77% # Class of committed instruction
system.cpu.commit.op_class_0::SimdAes               0      0.00%     71.77% # Class of committed instruction
system.cpu.commit.op_class_0::SimdAesMix            0      0.00%     71.77% # Class of committed instruction
system.cpu.commit.op_class_0::SimdSha1Hash            0      0.00%     71.77% # Class of committed instruction
system.cpu.commit.op_class_0::SimdSha1Hash2            0      0.00%     71.77% # Class of committed instruction
system.cpu.commit.op_class_0::SimdSha256Hash            0      0.00%     71.77% # Class of committed instruction
system.cpu.commit.op_class_0::SimdSha256Hash2            0      0.00%     71.77% # Class of committed instruction
system.cpu.commit.op_class_0::SimdShaSigma2            0      0.00%     71.77% # Class of committed instruction
system.cpu.commit.op_class_0::SimdShaSigma3            0      0.00%     71.77% # Class of committed instruction
system.cpu.commit.op_class_0::SimdPredAlu            0      0.00%     71.77% # Class of committed instruction
system.cpu.commit.op_class_0::MemRead          162174     14.55%     86.32% # Class of committed instruction
system.cpu.commit.op_class_0::MemWrite         152502     13.68%    100.00% # Class of committed instruction
system.cpu.commit.op_class_0::FloatMemRead            0      0.00%    100.00% # Class of committed instruction
system.cpu.commit.op_class_0::FloatMemWrite            0      0.00%    100.00% # Class of committed instruction
system.cpu.commit.op_class_0::IprAccess             0      0.00%    100.00% # Class of committed instruction
system.cpu.commit.op_class_0::InstPrefetch            0      0.00%    100.00% # Class of committed instruction
system.cpu.commit.op_class_0::total           1114605                       # Class of committed instruction
system.cpu.commit.refs                         314676                       # Number of memory references committed
system.cpu.commit.swp_count                         0                       # Number of s/w prefetches committed
system.cpu.commit.vec_insts                     33724                       # Number of committed Vector instructions.
system.cpu.committedInsts                     1000000                       # Number of Instructions Simulated
system.cpu.committedOps                       1113757                       # Number of Ops (including micro ops) Simulated
system.cpu.cpi                               1.586757                       # CPI: Cycles Per Instruction
system.cpu.cpi_total                         1.586757                       # CPI: Total CPI of All Threads
system.cpu.decode.BlockedCycles                 52790                       # Number of cycles decode is blocked
system.cpu.decode.BranchMispred                   531                       # Number of times decode detected a branch misprediction
system.cpu.decode.BranchResolved                96756                       # Number of times decode resolved a branch
system.cpu.decode.DecodedInsts                1197102                       # Number of instructions handled by decode
system.cpu.decode.IdleCycles                  1100474                       # Number of cycles decode is idle
system.cpu.decode.RunCycles                    237298                       # Number of cycles decode is running
system.cpu.decode.SquashCycles                   4308                       # Number of cycles decode is squashing
system.cpu.decode.SquashedInsts                   830                       # Number of squashed instructions handled by decode
system.cpu.decode.UnblockCycles                  3633                       # Number of cycles decode is unblocking
system.cpu.dtb.accesses                             0                       # DTB accesses
system.cpu.dtb.align_faults                         0                       # Number of TLB faults due to alignment restrictions
system.cpu.dtb.domain_faults                        0                       # Number of TLB faults due to domain restrictions
system.cpu.dtb.flush_entries                        0                       # Number of entries that have been flushed from TLB
system.cpu.dtb.flush_tlb                            0                       # Number of times complete TLB was flushed
system.cpu.dtb.flush_tlb_asid                       0                       # Number of times TLB was flushed by ASID
system.cpu.dtb.flush_tlb_mva                        0                       # Number of times TLB was flushed by MVA
system.cpu.dtb.flush_tlb_mva_asid                   0                       # Number of times TLB was flushed by MVA & ASID
system.cpu.dtb.hits                                 0                       # DTB hits
system.cpu.dtb.inst_accesses                        0                       # ITB inst accesses
system.cpu.dtb.inst_hits                            0                       # ITB inst hits
system.cpu.dtb.inst_misses                          0                       # ITB inst misses
system.cpu.dtb.misses                               0                       # DTB misses
system.cpu.dtb.perms_faults                         0                       # Number of TLB faults due to permissions restrictions
system.cpu.dtb.prefetch_faults                      0                       # Number of TLB faults due to prefetch
system.cpu.dtb.read_accesses                        0                       # DTB read accesses
system.cpu.dtb.read_hits                            0                       # DTB read hits
system.cpu.dtb.read_misses                          0                       # DTB read misses
system.cpu.dtb.stage2_mmu.stage2_tlb.accesses            0                       # DTB accesses
system.cpu.dtb.stage2_mmu.stage2_tlb.align_faults            0                       # Number of TLB faults due to alignment restrictions
system.cpu.dtb.stage2_mmu.stage2_tlb.domain_faults            0                       # Number of TLB faults due to domain restrictions
system.cpu.dtb.stage2_mmu.stage2_tlb.flush_entries            0                       # Number of entries that have been flushed from TLB
system.cpu.dtb.stage2_mmu.stage2_tlb.flush_tlb            0                       # Number of times complete TLB was flushed
system.cpu.dtb.stage2_mmu.stage2_tlb.flush_tlb_asid            0                       # Number of times TLB was flushed by ASID
system.cpu.dtb.stage2_mmu.stage2_tlb.flush_tlb_mva            0                       # Number of times TLB was flushed by MVA
system.cpu.dtb.stage2_mmu.stage2_tlb.flush_tlb_mva_asid            0                       # Number of times TLB was flushed by MVA & ASID
system.cpu.dtb.stage2_mmu.stage2_tlb.hits            0                       # DTB hits
system.cpu.dtb.stage2_mmu.stage2_tlb.inst_accesses            0                       # ITB inst accesses
system.cpu.dtb.stage2_mmu.stage2_tlb.inst_hits            0                       # ITB inst hits
system.cpu.dtb.stage2_mmu.stage2_tlb.inst_misses            0                       # ITB inst misses
system.cpu.dtb.stage2_mmu.stage2_tlb.misses            0                       # DTB misses
system.cpu.dtb.stage2_mmu.stage2_tlb.perms_faults            0                       # Number of TLB faults due to permissions restrictions
system.cpu.dtb.stage2_mmu.stage2_tlb.prefetch_faults            0                       # Number of TLB faults due to prefetch
system.cpu.dtb.stage2_mmu.stage2_tlb.read_accesses            0                       # DTB read accesses
system.cpu.dtb.stage2_mmu.stage2_tlb.read_hits            0                       # DTB read hits
system.cpu.dtb.stage2_mmu.stage2_tlb.read_misses            0                       # DTB read misses
system.cpu.dtb.stage2_mmu.stage2_tlb.walker.walkRequestOrigin_Requested::Data            0                       # Table walker requests started/completed, data/inst
system.cpu.dtb.stage2_mmu.stage2_tlb.walker.walkRequestOrigin_Requested::Inst            0                       # Table walker requests started/completed, data/inst
system.cpu.dtb.stage2_mmu.stage2_tlb.walker.walkRequestOrigin_Requested::total            0                       # Table walker requests started/completed, data/inst
system.cpu.dtb.stage2_mmu.stage2_tlb.walker.walkRequestOrigin_Completed::Data            0                       # Table walker requests started/completed, data/inst
system.cpu.dtb.stage2_mmu.stage2_tlb.walker.walkRequestOrigin_Completed::Inst            0                       # Table walker requests started/completed, data/inst
system.cpu.dtb.stage2_mmu.stage2_tlb.walker.walkRequestOrigin_Completed::total            0                       # Table walker requests started/completed, data/inst
system.cpu.dtb.stage2_mmu.stage2_tlb.walker.walkRequestOrigin::total            0                       # Table walker requests started/completed, data/inst
system.cpu.dtb.stage2_mmu.stage2_tlb.walker.walks            0                       # Table walker walks requested
system.cpu.dtb.stage2_mmu.stage2_tlb.write_accesses            0                       # DTB write accesses
system.cpu.dtb.stage2_mmu.stage2_tlb.write_hits            0                       # DTB write hits
system.cpu.dtb.stage2_mmu.stage2_tlb.write_misses            0                       # DTB write misses
system.cpu.dtb.walker.walkRequestOrigin_Requested::Data            0                       # Table walker requests started/completed, data/inst
system.cpu.dtb.walker.walkRequestOrigin_Requested::Inst            0                       # Table walker requests started/completed, data/inst
system.cpu.dtb.walker.walkRequestOrigin_Requested::total            0                       # Table walker requests started/completed, data/inst
system.cpu.dtb.walker.walkRequestOrigin_Completed::Data            0                       # Table walker requests started/completed, data/inst
system.cpu.dtb.walker.walkRequestOrigin_Completed::Inst            0                       # Table walker requests started/completed, data/inst
system.cpu.dtb.walker.walkRequestOrigin_Completed::total            0                       # Table walker requests started/completed, data/inst
system.cpu.dtb.walker.walkRequestOrigin::total            0                       # Table walker requests started/completed, data/inst
system.cpu.dtb.walker.walks                         0                       # Table walker walks requested
system.cpu.dtb.write_accesses                       0                       # DTB write accesses
system.cpu.dtb.write_hits                           0                       # DTB write hits
system.cpu.dtb.write_misses                         0                       # DTB write misses
system.cpu.fetch.Branches                      208451                       # Number of branches that fetch encountered
system.cpu.fetch.CacheLines                    170138                       # Number of cache lines fetched
system.cpu.fetch.Cycles                        252011                       # Number of cycles fetch has run and was not squashing or blocked
system.cpu.fetch.IcacheSquashes                  2183                       # Number of outstanding Icache misses that were squashed
system.cpu.fetch.IcacheWaitRetryStallCycles          111                       # Number of stall cycles due to full MSHR
system.cpu.fetch.Insts                        1088073                       # Number of instructions fetch has processed
system.cpu.fetch.MiscStallCycles                    6                       # Number of cycles fetch has spent waiting on interrupts, or bad addresses, or out of MSHRs
system.cpu.fetch.SquashCycles                    9668                       # Number of cycles fetch has spent squashing
system.cpu.fetch.branchRate                  0.131369                       # Number of branch fetches per cycle
system.cpu.fetch.icacheStallCycles            1141541                       # Number of cycles fetch is stalled on an Icache miss
system.cpu.fetch.predictedBranches             119423                       # Number of branches that fetch has predicted taken
system.cpu.fetch.rate                        0.685721                       # Number of inst fetches per cycle
system.cpu.fetch.rateDist::samples            1398503                       # Number of instructions fetched each cycle (Total)
system.cpu.fetch.rateDist::mean              0.868970                       # Number of instructions fetched each cycle (Total)
system.cpu.fetch.rateDist::stdev             2.177021                       # Number of instructions fetched each cycle (Total)
system.cpu.fetch.rateDist::underflows               0      0.00%      0.00% # Number of instructions fetched each cycle (Total)
system.cpu.fetch.rateDist::0                  1153659     82.49%     82.49% # Number of instructions fetched each cycle (Total)
system.cpu.fetch.rateDist::1                    38563      2.76%     85.25% # Number of instructions fetched each cycle (Total)
system.cpu.fetch.rateDist::2                    15955      1.14%     86.39% # Number of instructions fetched each cycle (Total)
system.cpu.fetch.rateDist::3                    19606      1.40%     87.79% # Number of instructions fetched each cycle (Total)
system.cpu.fetch.rateDist::4                    45525      3.26%     91.05% # Number of instructions fetched each cycle (Total)
system.cpu.fetch.rateDist::5                    12463      0.89%     91.94% # Number of instructions fetched each cycle (Total)
system.cpu.fetch.rateDist::6                    27513      1.97%     93.91% # Number of instructions fetched each cycle (Total)
system.cpu.fetch.rateDist::7                     5279      0.38%     94.28% # Number of instructions fetched each cycle (Total)
system.cpu.fetch.rateDist::8                    79940      5.72%    100.00% # Number of instructions fetched each cycle (Total)
system.cpu.fetch.rateDist::overflows                0      0.00%    100.00% # Number of instructions fetched each cycle (Total)
system.cpu.fetch.rateDist::min_value                0                       # Number of instructions fetched each cycle (Total)
system.cpu.fetch.rateDist::max_value                8                       # Number of instructions fetched each cycle (Total)
system.cpu.fetch.rateDist::total              1398503                       # Number of instructions fetched each cycle (Total)
system.cpu.icache.prefetcher.num_hwpf_issued       133386                       # number of hwpf issued
system.cpu.icache.prefetcher.pfBufferHit         3818                       # number of redundant prefetches already in prefetch queue
system.cpu.icache.prefetcher.pfIdentified       140271                       # number of prefetch candidates identified
system.cpu.icache.prefetcher.pfInCache              0                       # number of redundant prefetches already in cache/mshr dropped
system.cpu.icache.prefetcher.pfRemovedFull            0                       # number of prefetches dropped due to prefetch queue size
system.cpu.icache.prefetcher.pfSpanPage        134290                       # number of prefetches that crossed the page
system.cpu.idleCycles                          188254                       # Total number of cycles that the CPU has spent unscheduled due to idling
system.cpu.iew.branchMispredicts                 4351                       # Number of branch mispredicts detected at execute
system.cpu.iew.exec_branches                   190491                       # Number of branches executed
system.cpu.iew.exec_nop                           868                       # number of nop insts executed
system.cpu.iew.exec_rate                     0.720455                       # Inst execution rate
system.cpu.iew.exec_refs                       327027                       # number of memory reference insts executed
system.cpu.iew.exec_stores                     153363                       # Number of stores executed
system.cpu.iew.exec_swp                             0                       # number of swp insts executed
system.cpu.iew.iewBlockCycles                    4435                       # Number of cycles IEW is blocking
system.cpu.iew.iewDispLoadInsts                170613                       # Number of dispatched load instructions
system.cpu.iew.iewDispNonSpecInsts               1160                       # Number of dispatched non-speculative instructions
system.cpu.iew.iewDispSquashedInsts              5640                       # Number of squashed instructions skipped by dispatch
system.cpu.iew.iewDispStoreInsts               157563                       # Number of dispatched store instructions
system.cpu.iew.iewDispatchedInsts             1164189                       # Number of instructions dispatched to IQ
system.cpu.iew.iewExecLoadInsts                173664                       # Number of load instructions executed
system.cpu.iew.iewExecSquashedInsts              7397                       # Number of squashed instructions skipped in execute
system.cpu.iew.iewExecutedInsts               1143187                       # Number of executed instructions
system.cpu.iew.iewIQFullEvents                      6                       # Number of times the IQ has become full, causing a stall
system.cpu.iew.iewIdleCycles                        0                       # Number of cycles IEW is idle
system.cpu.iew.iewLSQFullEvents                   132                       # Number of times the LSQ has become full, causing a stall
system.cpu.iew.iewSquashCycles                   4308                       # Number of cycles IEW is squashing
system.cpu.iew.iewUnblockCycles                   140                       # Number of cycles IEW is unblocking
system.cpu.iew.lsq.thread0.blockedLoads             0                       # Number of blocked loads due to partial load-store forwarding
system.cpu.iew.lsq.thread0.cacheBlocked            57                       # Number of times an access to memory failed due to the cache being blocked
system.cpu.iew.lsq.thread0.forwLoads             2682                       # Number of loads that had data forwarded from stores
system.cpu.iew.lsq.thread0.ignoredResponses            3                       # Number of memory responses ignored because the instruction is squashed
system.cpu.iew.lsq.thread0.invAddrLoads             0                       # Number of loads ignored due to an invalid address
system.cpu.iew.lsq.thread0.invAddrSwpfs             0                       # Number of software prefetches ignored due to an invalid address
system.cpu.iew.lsq.thread0.memOrderViolation           13                       # Number of memory ordering violations
system.cpu.iew.lsq.thread0.rescheduledLoads         6261                       # Number of loads that were rescheduled
system.cpu.iew.lsq.thread0.squashedLoads         8438                       # Number of loads squashed
system.cpu.iew.lsq.thread0.squashedStores         5061                       # Number of stores squashed
system.cpu.iew.memOrderViolationEvents             13                       # Number of memory order violations
system.cpu.iew.predictedNotTakenIncorrect         3561                       # Number of branches that were predicted not taken incorrectly
system.cpu.iew.predictedTakenIncorrect            790                       # Number of branches that were predicted taken incorrectly
system.cpu.iew.wb_consumers                   1031293                       # num instructions consuming a value
system.cpu.iew.wb_count                       1134221                       # cumulative count of insts written-back
system.cpu.iew.wb_fanout                     0.561716                       # average fanout of values written-back
system.cpu.iew.wb_producers                    579294                       # num instructions producing a value
system.cpu.iew.wb_rate                       0.714804                       # insts written-back per cycle
system.cpu.iew.wb_sent                        1134541                       # cumulative count of insts sent to commit
system.cpu.int_regfile_reads                  1385845                       # number of integer regfile reads
system.cpu.int_regfile_writes                  815602                       # number of integer regfile writes
system.cpu.ipc                               0.630216                       # IPC: Instructions Per Cycle
system.cpu.ipc_total                         0.630216                       # IPC: Total IPC of All Threads
system.cpu.iq.FU_type_0::No_OpClass              1145      0.10%      0.10% # Type of FU issued
system.cpu.iq.FU_type_0::IntAlu                779147     67.72%     67.82% # Type of FU issued
system.cpu.iq.FU_type_0::IntMult                22606      1.96%     69.78% # Type of FU issued
system.cpu.iq.FU_type_0::IntDiv                     3      0.00%     69.78% # Type of FU issued
system.cpu.iq.FU_type_0::FloatAdd                   0      0.00%     69.78% # Type of FU issued
system.cpu.iq.FU_type_0::FloatCmp                1136      0.10%     69.88% # Type of FU issued
system.cpu.iq.FU_type_0::FloatCvt                 568      0.05%     69.93% # Type of FU issued
system.cpu.iq.FU_type_0::FloatMult                  0      0.00%     69.93% # Type of FU issued
system.cpu.iq.FU_type_0::FloatMultAcc               0      0.00%     69.93% # Type of FU issued
system.cpu.iq.FU_type_0::FloatDiv                 568      0.05%     69.98% # Type of FU issued
system.cpu.iq.FU_type_0::FloatMisc               2273      0.20%     70.18% # Type of FU issued
system.cpu.iq.FU_type_0::FloatSqrt                  0      0.00%     70.18% # Type of FU issued
system.cpu.iq.FU_type_0::SimdAdd                 2306      0.20%     70.38% # Type of FU issued
system.cpu.iq.FU_type_0::SimdAddAcc                 0      0.00%     70.38% # Type of FU issued
system.cpu.iq.FU_type_0::SimdAlu                 4577      0.40%     70.78% # Type of FU issued
system.cpu.iq.FU_type_0::SimdCmp                 4580      0.40%     71.17% # Type of FU issued
system.cpu.iq.FU_type_0::SimdCvt                    0      0.00%     71.17% # Type of FU issued
system.cpu.iq.FU_type_0::SimdMisc                3436      0.30%     71.47% # Type of FU issued
system.cpu.iq.FU_type_0::SimdMult                   0      0.00%     71.47% # Type of FU issued
system.cpu.iq.FU_type_0::SimdMultAcc                0      0.00%     71.47% # Type of FU issued
system.cpu.iq.FU_type_0::SimdShift                  0      0.00%     71.47% # Type of FU issued
system.cpu.iq.FU_type_0::SimdShiftAcc               0      0.00%     71.47% # Type of FU issued
system.cpu.iq.FU_type_0::SimdDiv                    0      0.00%     71.47% # Type of FU issued
system.cpu.iq.FU_type_0::SimdSqrt                   0      0.00%     71.47% # Type of FU issued
system.cpu.iq.FU_type_0::SimdFloatAdd               0      0.00%     71.47% # Type of FU issued
system.cpu.iq.FU_type_0::SimdFloatAlu               0      0.00%     71.47% # Type of FU issued
system.cpu.iq.FU_type_0::SimdFloatCmp               0      0.00%     71.47% # Type of FU issued
system.cpu.iq.FU_type_0::SimdFloatCvt               0      0.00%     71.47% # Type of FU issued
system.cpu.iq.FU_type_0::SimdFloatDiv               0      0.00%     71.47% # Type of FU issued
system.cpu.iq.FU_type_0::SimdFloatMisc              0      0.00%     71.47% # Type of FU issued
system.cpu.iq.FU_type_0::SimdFloatMult              0      0.00%     71.47% # Type of FU issued
system.cpu.iq.FU_type_0::SimdFloatMultAcc            0      0.00%     71.47% # Type of FU issued
system.cpu.iq.FU_type_0::SimdFloatSqrt              0      0.00%     71.47% # Type of FU issued
system.cpu.iq.FU_type_0::SimdReduceAdd              0      0.00%     71.47% # Type of FU issued
system.cpu.iq.FU_type_0::SimdReduceAlu              0      0.00%     71.47% # Type of FU issued
system.cpu.iq.FU_type_0::SimdReduceCmp              0      0.00%     71.47% # Type of FU issued
system.cpu.iq.FU_type_0::SimdFloatReduceAdd            0      0.00%     71.47% # Type of FU issued
system.cpu.iq.FU_type_0::SimdFloatReduceCmp            0      0.00%     71.47% # Type of FU issued
system.cpu.iq.FU_type_0::SimdAes                    0      0.00%     71.47% # Type of FU issued
system.cpu.iq.FU_type_0::SimdAesMix                 0      0.00%     71.47% # Type of FU issued
system.cpu.iq.FU_type_0::SimdSha1Hash               0      0.00%     71.47% # Type of FU issued
system.cpu.iq.FU_type_0::SimdSha1Hash2              0      0.00%     71.47% # Type of FU issued
system.cpu.iq.FU_type_0::SimdSha256Hash             0      0.00%     71.47% # Type of FU issued
system.cpu.iq.FU_type_0::SimdSha256Hash2            0      0.00%     71.47% # Type of FU issued
system.cpu.iq.FU_type_0::SimdShaSigma2              0      0.00%     71.47% # Type of FU issued
system.cpu.iq.FU_type_0::SimdShaSigma3              0      0.00%     71.47% # Type of FU issued
system.cpu.iq.FU_type_0::SimdPredAlu                0      0.00%     71.47% # Type of FU issued
system.cpu.iq.FU_type_0::MemRead               174184     15.14%     86.61% # Type of FU issued
system.cpu.iq.FU_type_0::MemWrite              154058     13.39%    100.00% # Type of FU issued
system.cpu.iq.FU_type_0::FloatMemRead               0      0.00%    100.00% # Type of FU issued
system.cpu.iq.FU_type_0::FloatMemWrite              0      0.00%    100.00% # Type of FU issued
system.cpu.iq.FU_type_0::IprAccess                  0      0.00%    100.00% # Type of FU issued
system.cpu.iq.FU_type_0::InstPrefetch               0      0.00%    100.00% # Type of FU issued
system.cpu.iq.FU_type_0::total                1150587                       # Type of FU issued
system.cpu.iq.fp_alu_accesses                       0                       # Number of floating point alu accesses
system.cpu.iq.fp_inst_queue_reads                   0                       # Number of floating instruction queue reads
system.cpu.iq.fp_inst_queue_wakeup_accesses            0                       # Number of floating instruction queue wakeup accesses
system.cpu.iq.fp_inst_queue_writes                  0                       # Number of floating instruction queue writes
system.cpu.iq.fu_busy_cnt                       16263                       # FU busy when requested
system.cpu.iq.fu_busy_rate                   0.014135                       # FU busy rate (busy events/executed inst)
system.cpu.iq.fu_full::No_OpClass                   0      0.00%      0.00% # attempts to use FU when none available
system.cpu.iq.fu_full::IntAlu                     710      4.37%      4.37% # attempts to use FU when none available
system.cpu.iq.fu_full::IntMult                   5077     31.22%     35.58% # attempts to use FU when none available
system.cpu.iq.fu_full::IntDiv                       0      0.00%     35.58% # attempts to use FU when none available
system.cpu.iq.fu_full::FloatAdd                     0      0.00%     35.58% # attempts to use FU when none available
system.cpu.iq.fu_full::FloatCmp                     0      0.00%     35.58% # attempts to use FU when none available
system.cpu.iq.fu_full::FloatCvt                     0      0.00%     35.58% # attempts to use FU when none available
system.cpu.iq.fu_full::FloatMult                    0      0.00%     35.58% # attempts to use FU when none available
system.cpu.iq.fu_full::FloatMultAcc                 0      0.00%     35.58% # attempts to use FU when none available
system.cpu.iq.fu_full::FloatDiv                     0      0.00%     35.58% # attempts to use FU when none available
system.cpu.iq.fu_full::FloatMisc                    0      0.00%     35.58% # attempts to use FU when none available
system.cpu.iq.fu_full::FloatSqrt                    0      0.00%     35.58% # attempts to use FU when none available
system.cpu.iq.fu_full::SimdAdd                      0      0.00%     35.58% # attempts to use FU when none available
system.cpu.iq.fu_full::SimdAddAcc                   0      0.00%     35.58% # attempts to use FU when none available
system.cpu.iq.fu_full::SimdAlu                      1      0.01%     35.59% # attempts to use FU when none available
system.cpu.iq.fu_full::SimdCmp                      2      0.01%     35.60% # attempts to use FU when none available
system.cpu.iq.fu_full::SimdCvt                      0      0.00%     35.60% # attempts to use FU when none available
system.cpu.iq.fu_full::SimdMisc                     0      0.00%     35.60% # attempts to use FU when none available
system.cpu.iq.fu_full::SimdMult                     0      0.00%     35.60% # attempts to use FU when none available
system.cpu.iq.fu_full::SimdMultAcc                  0      0.00%     35.60% # attempts to use FU when none available
system.cpu.iq.fu_full::SimdShift                    0      0.00%     35.60% # attempts to use FU when none available
system.cpu.iq.fu_full::SimdShiftAcc                 0      0.00%     35.60% # attempts to use FU when none available
system.cpu.iq.fu_full::SimdDiv                      0      0.00%     35.60% # attempts to use FU when none available
system.cpu.iq.fu_full::SimdSqrt                     0      0.00%     35.60% # attempts to use FU when none available
system.cpu.iq.fu_full::SimdFloatAdd                 0      0.00%     35.60% # attempts to use FU when none available
system.cpu.iq.fu_full::SimdFloatAlu                 0      0.00%     35.60% # attempts to use FU when none available
system.cpu.iq.fu_full::SimdFloatCmp                 0      0.00%     35.60% # attempts to use FU when none available
system.cpu.iq.fu_full::SimdFloatCvt                 0      0.00%     35.60% # attempts to use FU when none available
system.cpu.iq.fu_full::SimdFloatDiv                 0      0.00%     35.60% # attempts to use FU when none available
system.cpu.iq.fu_full::SimdFloatMisc                0      0.00%     35.60% # attempts to use FU when none available
system.cpu.iq.fu_full::SimdFloatMult                0      0.00%     35.60% # attempts to use FU when none available
system.cpu.iq.fu_full::SimdFloatMultAcc             0      0.00%     35.60% # attempts to use FU when none available
system.cpu.iq.fu_full::SimdFloatSqrt                0      0.00%     35.60% # attempts to use FU when none available
system.cpu.iq.fu_full::SimdReduceAdd                0      0.00%     35.60% # attempts to use FU when none available
system.cpu.iq.fu_full::SimdReduceAlu                0      0.00%     35.60% # attempts to use FU when none available
system.cpu.iq.fu_full::SimdReduceCmp                0      0.00%     35.60% # attempts to use FU when none available
system.cpu.iq.fu_full::SimdFloatReduceAdd            0      0.00%     35.60% # attempts to use FU when none available
system.cpu.iq.fu_full::SimdFloatReduceCmp            0      0.00%     35.60% # attempts to use FU when none available
system.cpu.iq.fu_full::SimdAes                      0      0.00%     35.60% # attempts to use FU when none available
system.cpu.iq.fu_full::SimdAesMix                   0      0.00%     35.60% # attempts to use FU when none available
system.cpu.iq.fu_full::SimdSha1Hash                 0      0.00%     35.60% # attempts to use FU when none available
system.cpu.iq.fu_full::SimdSha1Hash2                0      0.00%     35.60% # attempts to use FU when none available
system.cpu.iq.fu_full::SimdSha256Hash               0      0.00%     35.60% # attempts to use FU when none available
system.cpu.iq.fu_full::SimdSha256Hash2              0      0.00%     35.60% # attempts to use FU when none available
system.cpu.iq.fu_full::SimdShaSigma2                0      0.00%     35.60% # attempts to use FU when none available
system.cpu.iq.fu_full::SimdShaSigma3                0      0.00%     35.60% # attempts to use FU when none available
system.cpu.iq.fu_full::SimdPredAlu                  0      0.00%     35.60% # attempts to use FU when none available
system.cpu.iq.fu_full::MemRead                   2963     18.22%     53.82% # attempts to use FU when none available
system.cpu.iq.fu_full::MemWrite                  7510     46.18%    100.00% # attempts to use FU when none available
system.cpu.iq.fu_full::FloatMemRead                 0      0.00%    100.00% # attempts to use FU when none available
system.cpu.iq.fu_full::FloatMemWrite                0      0.00%    100.00% # attempts to use FU when none available
system.cpu.iq.fu_full::IprAccess                    0      0.00%    100.00% # attempts to use FU when none available
system.cpu.iq.fu_full::InstPrefetch                 0      0.00%    100.00% # attempts to use FU when none available
system.cpu.iq.int_alu_accesses                1130774                       # Number of integer alu accesses
system.cpu.iq.int_inst_queue_reads            3646144                       # Number of integer instruction queue reads
system.cpu.iq.int_inst_queue_wakeup_accesses      1100465                       # Number of integer instruction queue wakeup accesses
system.cpu.iq.int_inst_queue_writes           1178857                       # Number of integer instruction queue writes
system.cpu.iq.iqInstsAdded                    1162161                       # Number of instructions added to the IQ (excludes non-spec)
system.cpu.iq.iqInstsIssued                   1150587                       # Number of instructions issued
system.cpu.iq.iqNonSpecInstsAdded                1160                       # Number of non-speculative instructions added to the IQ
system.cpu.iq.iqSquashedInstsExamined           49556                       # Number of squashed instructions iterated over during squash; mainly for profiling
system.cpu.iq.iqSquashedInstsIssued                84                       # Number of squashed instructions issued
system.cpu.iq.iqSquashedNonSpecRemoved              9                       # Number of squashed non-spec instructions that were removed
system.cpu.iq.iqSquashedOperandsExamined        41758                       # Number of squashed operands that are examined and possibly removed from graph
system.cpu.iq.issued_per_cycle::samples       1398503                       # Number of insts issued each cycle
system.cpu.iq.issued_per_cycle::mean         0.822728                       # Number of insts issued each cycle
system.cpu.iq.issued_per_cycle::stdev        1.504181                       # Number of insts issued each cycle
system.cpu.iq.issued_per_cycle::underflows            0      0.00%      0.00% # Number of insts issued each cycle
system.cpu.iq.issued_per_cycle::0              951351     68.03%     68.03% # Number of insts issued each cycle
system.cpu.iq.issued_per_cycle::1              149864     10.72%     78.74% # Number of insts issued each cycle
system.cpu.iq.issued_per_cycle::2               99672      7.13%     85.87% # Number of insts issued each cycle
system.cpu.iq.issued_per_cycle::3               88226      6.31%     92.18% # Number of insts issued each cycle
system.cpu.iq.issued_per_cycle::4               55958      4.00%     96.18% # Number of insts issued each cycle
system.cpu.iq.issued_per_cycle::5               21878      1.56%     97.74% # Number of insts issued each cycle
system.cpu.iq.issued_per_cycle::6               20396      1.46%     99.20% # Number of insts issued each cycle
system.cpu.iq.issued_per_cycle::7                8161      0.58%     99.79% # Number of insts issued each cycle
system.cpu.iq.issued_per_cycle::8                2997      0.21%    100.00% # Number of insts issued each cycle
system.cpu.iq.issued_per_cycle::overflows            0      0.00%    100.00% # Number of insts issued each cycle
system.cpu.iq.issued_per_cycle::min_value            0                       # Number of insts issued each cycle
system.cpu.iq.issued_per_cycle::max_value            8                       # Number of insts issued each cycle
system.cpu.iq.issued_per_cycle::total         1398503                       # Number of insts issued each cycle
system.cpu.iq.rate                           0.725119                       # Inst issue rate
system.cpu.iq.vec_alu_accesses                  34931                       # Number of vector alu accesses
system.cpu.iq.vec_inst_queue_reads              69877                       # Number of vector instruction queue reads
system.cpu.iq.vec_inst_queue_wakeup_accesses        33756                       # Number of vector instruction queue wakeup accesses
system.cpu.iq.vec_inst_queue_writes             34030                       # Number of vector instruction queue writes
system.cpu.itb.accesses                             0                       # DTB accesses
system.cpu.itb.align_faults                         0                       # Number of TLB faults due to alignment restrictions
system.cpu.itb.domain_faults                        0                       # Number of TLB faults due to domain restrictions
system.cpu.itb.flush_entries                        0                       # Number of entries that have been flushed from TLB
system.cpu.itb.flush_tlb                            0                       # Number of times complete TLB was flushed
system.cpu.itb.flush_tlb_asid                       0                       # Number of times TLB was flushed by ASID
system.cpu.itb.flush_tlb_mva                        0                       # Number of times TLB was flushed by MVA
system.cpu.itb.flush_tlb_mva_asid                   0                       # Number of times TLB was flushed by MVA & ASID
system.cpu.itb.hits                                 0                       # DTB hits
system.cpu.itb.inst_accesses                        0                       # ITB inst accesses
system.cpu.itb.inst_hits                            0                       # ITB inst hits
system.cpu.itb.inst_misses                          0                       # ITB inst misses
system.cpu.itb.misses                               0                       # DTB misses
system.cpu.itb.perms_faults                         0                       # Number of TLB faults due to permissions restrictions
system.cpu.itb.prefetch_faults                      0                       # Number of TLB faults due to prefetch
system.cpu.itb.read_accesses                        0                       # DTB read accesses
system.cpu.itb.read_hits                            0                       # DTB read hits
system.cpu.itb.read_misses                          0                       # DTB read misses
system.cpu.itb.stage2_mmu.stage2_tlb.accesses            0                       # DTB accesses
system.cpu.itb.stage2_mmu.stage2_tlb.align_faults            0                       # Number of TLB faults due to alignment restrictions
system.cpu.itb.stage2_mmu.stage2_tlb.domain_faults            0                       # Number of TLB faults due to domain restrictions
system.cpu.itb.stage2_mmu.stage2_tlb.flush_entries            0                       # Number of entries that have been flushed from TLB
system.cpu.itb.stage2_mmu.stage2_tlb.flush_tlb            0                       # Number of times complete TLB was flushed
system.cpu.itb.stage2_mmu.stage2_tlb.flush_tlb_asid            0                       # Number of times TLB was flushed by ASID
system.cpu.itb.stage2_mmu.stage2_tlb.flush_tlb_mva            0                       # Number of times TLB was flushed by MVA
system.cpu.itb.stage2_mmu.stage2_tlb.flush_tlb_mva_asid            0                       # Number of times TLB was flushed by MVA & ASID
system.cpu.itb.stage2_mmu.stage2_tlb.hits            0                       # DTB hits
system.cpu.itb.stage2_mmu.stage2_tlb.inst_accesses            0                       # ITB inst accesses
system.cpu.itb.stage2_mmu.stage2_tlb.inst_hits            0                       # ITB inst hits
system.cpu.itb.stage2_mmu.stage2_tlb.inst_misses            0                       # ITB inst misses
system.cpu.itb.stage2_mmu.stage2_tlb.misses            0                       # DTB misses
system.cpu.itb.stage2_mmu.stage2_tlb.perms_faults            0                       # Number of TLB faults due to permissions restrictions
system.cpu.itb.stage2_mmu.stage2_tlb.prefetch_faults            0                       # Number of TLB faults due to prefetch
system.cpu.itb.stage2_mmu.stage2_tlb.read_accesses            0                       # DTB read accesses
system.cpu.itb.stage2_mmu.stage2_tlb.read_hits            0                       # DTB read hits
system.cpu.itb.stage2_mmu.stage2_tlb.read_misses            0                       # DTB read misses
system.cpu.itb.stage2_mmu.stage2_tlb.walker.walkRequestOrigin_Requested::Data            0                       # Table walker requests started/completed, data/inst
system.cpu.itb.stage2_mmu.stage2_tlb.walker.walkRequestOrigin_Requested::Inst            0                       # Table walker requests started/completed, data/inst
system.cpu.itb.stage2_mmu.stage2_tlb.walker.walkRequestOrigin_Requested::total            0                       # Table walker requests started/completed, data/inst
system.cpu.itb.stage2_mmu.stage2_tlb.walker.walkRequestOrigin_Completed::Data            0                       # Table walker requests started/completed, data/inst
system.cpu.itb.stage2_mmu.stage2_tlb.walker.walkRequestOrigin_Completed::Inst            0                       # Table walker requests started/completed, data/inst
system.cpu.itb.stage2_mmu.stage2_tlb.walker.walkRequestOrigin_Completed::total            0                       # Table walker requests started/completed, data/inst
system.cpu.itb.stage2_mmu.stage2_tlb.walker.walkRequestOrigin::total            0                       # Table walker requests started/completed, data/inst
system.cpu.itb.stage2_mmu.stage2_tlb.walker.walks            0                       # Table walker walks requested
system.cpu.itb.stage2_mmu.stage2_tlb.write_accesses            0                       # DTB write accesses
system.cpu.itb.stage2_mmu.stage2_tlb.write_hits            0                       # DTB write hits
system.cpu.itb.stage2_mmu.stage2_tlb.write_misses            0                       # DTB write misses
system.cpu.itb.walker.walkRequestOrigin_Requested::Data            0                       # Table walker requests started/completed, data/inst
system.cpu.itb.walker.walkRequestOrigin_Requested::Inst            0                       # Table walker requests started/completed, data/inst
system.cpu.itb.walker.walkRequestOrigin_Requested::total            0                       # Table walker requests started/completed, data/inst
system.cpu.itb.walker.walkRequestOrigin_Completed::Data            0                       # Table walker requests started/completed, data/inst
system.cpu.itb.walker.walkRequestOrigin_Completed::Inst            0                       # Table walker requests started/completed, data/inst
system.cpu.itb.walker.walkRequestOrigin_Completed::total            0                       # Table walker requests started/completed, data/inst
system.cpu.itb.walker.walkRequestOrigin::total            0                       # Table walker requests started/completed, data/inst
system.cpu.itb.walker.walks                         0                       # Table walker walks requested
system.cpu.itb.write_accesses                       0                       # DTB write accesses
system.cpu.itb.write_hits                           0                       # DTB write hits
system.cpu.itb.write_misses                         0                       # DTB write misses
system.cpu.memDep0.conflictingLoads              6275                       # Number of conflicting loads.
system.cpu.memDep0.conflictingStores             5693                       # Number of conflicting stores.
system.cpu.memDep0.insertedLoads               170613                       # Number of loads inserted to the mem dependence unit.
system.cpu.memDep0.insertedStores              157563                       # Number of stores inserted to the mem dependence unit.
system.cpu.misc_regfile_reads                  817022                       # number of misc regfile reads
system.cpu.misc_regfile_writes                   7413                       # number of misc regfile writes
system.cpu.numCycles                          1586757                       # number of cpu cycles simulated
system.cpu.numWorkItemsCompleted                    0                       # number of work items this cpu completed
system.cpu.numWorkItemsStarted                      0                       # number of work items this cpu started
system.cpu.rename.BlockCycles                    4609                       # Number of cycles rename is blocking
system.cpu.rename.CommittedMaps               1169126                       # Number of HB maps that are committed
system.cpu.rename.IQFullEvents                    570                       # Number of times rename has blocked due to IQ full
system.cpu.rename.IdleCycles                  1104514                       # Number of cycles rename is idle
system.cpu.rename.ROBFullEvents                     2                       # Number of times rename has blocked due to ROB full
system.cpu.rename.RenameLookups               1928704                       # Number of register rename lookups that rename has made
system.cpu.rename.RenamedInsts                1185116                       # Number of instructions processed by rename
system.cpu.rename.RenamedOperands             1248034                       # Number of destination operands rename has renamed
system.cpu.rename.RunCycles                    236878                       # Number of cycles rename is running
system.cpu.rename.SQFullEvents                    933                       # Number of times rename has blocked due to SQ full
system.cpu.rename.SquashCycles                   4308                       # Number of cycles rename is squashing
system.cpu.rename.UnblockCycles                  7236                       # Number of cycles rename is unblocking
system.cpu.rename.UndoneMaps                    78880                       # Number of HB maps that are undone due to squashing
system.cpu.rename.int_rename_lookups          1432120                       # Number of integer rename lookups
system.cpu.rename.serializeStallCycles          40958                       # count of cycles rename stalled for serializing inst
system.cpu.rename.serializingInsts               4079                       # count of serializing insts renamed
system.cpu.rename.skidInsts                     35272                       # count of insts added to the skid buffer
system.cpu.rename.tempSerializingInsts           1161                       # count of temporary serializing insts renamed
system.cpu.rename.vec_rename_lookups            39680                       # Number of vector rename lookups
system.cpu.rob.rob_reads                      2514382                       # The number of ROB reads
system.cpu.rob.rob_writes                     2336667                       # The number of ROB writes
system.cpu.timesIdled                           30311                       # Number of times that the entire CPU went into an idle state and unscheduled itself
system.cpu.vec_regfile_reads                    39509                       # number of vector regfile reads
system.cpu.vec_regfile_writes                   22307                       # number of vector regfile writes
system.cpu.workload.numSyscalls                     7                       # Number of system calls
system.membus.snoop_filter.hit_multi_requests            0                       # Number of requests hitting in the snoop filter with multiple (>1) holders of the requested data.
system.membus.snoop_filter.hit_multi_snoops            0                       # Number of snoops hitting in the snoop filter with multiple (>1) holders of the requested data.
system.membus.snoop_filter.hit_single_requests            0                       # Number of requests hitting in the snoop filter with a single holder of the requested data.
system.membus.snoop_filter.hit_single_snoops            0                       # Number of snoops hitting in the snoop filter with a single holder of the requested data.
system.membus.snoop_filter.tot_requests           808                       # Total number of requests made to the snoop filter.
system.membus.snoop_filter.tot_snoops               0                       # Total number of snoops made to the snoop filter.
system.tol2bus.snoop_filter.hit_multi_requests            1                       # Number of requests hitting in the snoop filter with multiple (>1) holders of the requested data.
system.tol2bus.snoop_filter.hit_multi_snoops            0                       # Number of snoops hitting in the snoop filter with multiple (>1) holders of the requested data.
system.tol2bus.snoop_filter.hit_single_requests        84465                       # Number of requests hitting in the snoop filter with a single holder of the requested data.
system.tol2bus.snoop_filter.hit_single_snoops            0                       # Number of snoops hitting in the snoop filter with a single holder of the requested data.
system.tol2bus.snoop_filter.tot_requests       169291                       # Total number of requests made to the snoop filter.
system.tol2bus.snoop_filter.tot_snoops              0                       # Total number of snoops made to the snoop filter.
system.membus.trans_dist::ReadResp                617                       # Transaction distribution
system.membus.trans_dist::ReadExReq               184                       # Transaction distribution
system.membus.trans_dist::ReadExResp              184                       # Transaction distribution
system.membus.trans_dist::ReadSharedReq           617                       # Transaction distribution
system.membus.trans_dist::InvalidateReq             7                       # Transaction distribution
system.membus.pkt_count_system.l2.mem_side::system.mem_ctrls.port         1609                       # Packet count per connected master and slave (bytes)
system.membus.pkt_count::total                   1609                       # Packet count per connected master and slave (bytes)
system.membus.pkt_size_system.l2.mem_side::system.mem_ctrls.port        51264                       # Cumulative packet size per connected master and slave (bytes)
system.membus.pkt_size::total                   51264                       # Cumulative packet size per connected master and slave (bytes)
system.membus.snoops                                0                       # Total snoops (count)
system.membus.snoopTraffic                          0                       # Total snoop traffic (bytes)
system.membus.snoop_fanout::samples               808                       # Request fanout histogram
system.membus.snoop_fanout::mean                    0                       # Request fanout histogram
system.membus.snoop_fanout::stdev                   0                       # Request fanout histogram
system.membus.snoop_fanout::underflows              0      0.00%      0.00% # Request fanout histogram
system.membus.snoop_fanout::0                     808    100.00%    100.00% # Request fanout histogram
system.membus.snoop_fanout::1                       0      0.00%    100.00% # Request fanout histogram
system.membus.snoop_fanout::overflows               0      0.00%    100.00% # Request fanout histogram
system.membus.snoop_fanout::min_value               0                       # Request fanout histogram
system.membus.snoop_fanout::max_value               0                       # Request fanout histogram
system.membus.snoop_fanout::total                 808                       # Request fanout histogram
system.membus.reqLayer0.occupancy             1014500                       # Layer occupancy (ticks)
system.membus.reqLayer0.utilization               0.1                       # Layer utilization (%)
system.membus.respLayer1.occupancy            4263750                       # Layer occupancy (ticks)
system.membus.respLayer1.utilization              0.5                       # Layer utilization (%)
system.membus.power_state.pwrStateResidencyTicks::UNDEFINED    793378000                       # Cumulative time (in ticks) in various power states
system.tol2bus.trans_dist::ReadResp             84635                       # Transaction distribution
system.tol2bus.trans_dist::WritebackClean        84465                       # Transaction distribution
system.tol2bus.trans_dist::ReadExReq              184                       # Transaction distribution
system.tol2bus.trans_dist::ReadExResp             184                       # Transaction distribution
system.tol2bus.trans_dist::ReadCleanReq         84529                       # Transaction distribution
system.tol2bus.trans_dist::ReadSharedReq          106                       # Transaction distribution
system.tol2bus.trans_dist::InvalidateReq            7                       # Transaction distribution
system.tol2bus.trans_dist::InvalidateResp            7                       # Transaction distribution
system.tol2bus.pkt_count_system.cpu.icache.mem_side::system.l2.cpu_side       253523                       # Packet count per connected master and slave (bytes)
system.tol2bus.pkt_count_system.cpu.dcache.mem_side::system.l2.cpu_side          594                       # Packet count per connected master and slave (bytes)
system.tol2bus.pkt_count::total                254117                       # Packet count per connected master and slave (bytes)
system.tol2bus.pkt_size_system.cpu.icache.mem_side::system.l2.cpu_side     10815616                       # Cumulative packet size per connected master and slave (bytes)
system.tol2bus.pkt_size_system.cpu.dcache.mem_side::system.l2.cpu_side        18560                       # Cumulative packet size per connected master and slave (bytes)
system.tol2bus.pkt_size::total               10834176                       # Cumulative packet size per connected master and slave (bytes)
system.tol2bus.snoops                               0                       # Total snoops (count)
system.tol2bus.snoopTraffic                         0                       # Total snoop traffic (bytes)
system.tol2bus.snoop_fanout::samples            84826                       # Request fanout histogram
system.tol2bus.snoop_fanout::mean            0.000012                       # Request fanout histogram
system.tol2bus.snoop_fanout::stdev           0.003433                       # Request fanout histogram
system.tol2bus.snoop_fanout::underflows             0      0.00%      0.00% # Request fanout histogram
system.tol2bus.snoop_fanout::0                  84825    100.00%    100.00% # Request fanout histogram
system.tol2bus.snoop_fanout::1                      1      0.00%    100.00% # Request fanout histogram
system.tol2bus.snoop_fanout::2                      0      0.00%    100.00% # Request fanout histogram
system.tol2bus.snoop_fanout::overflows              0      0.00%    100.00% # Request fanout histogram
system.tol2bus.snoop_fanout::min_value              0                       # Request fanout histogram
system.tol2bus.snoop_fanout::max_value              1                       # Request fanout histogram
system.tol2bus.snoop_fanout::total              84826                       # Request fanout histogram
system.tol2bus.reqLayer0.occupancy          183014375                       # Layer occupancy (ticks)
system.tol2bus.reqLayer0.utilization             23.1                       # Layer utilization (%)
system.tol2bus.respLayer1.occupancy            439498                       # Layer occupancy (ticks)
system.tol2bus.respLayer1.utilization             0.1                       # Layer utilization (%)
system.tol2bus.respLayer0.occupancy         126793500                       # Layer occupancy (ticks)
system.tol2bus.respLayer0.utilization            16.0                       # Layer utilization (%)
system.tol2bus.power_state.pwrStateResidencyTicks::UNDEFINED    793378000                       # Cumulative time (in ticks) in various power states
system.voltage_domain.voltage                       1                       # Voltage in Volts
system.clk_domain.clock                          1000                       # Clock period in ticks
system.l2.demand_hits::.cpu.inst                36683                       # number of demand (read+write) hits
system.l2.demand_hits::.cpu.icache.prefetcher        47335                       # number of demand (read+write) hits
system.l2.demand_hits::total                    84018                       # number of demand (read+write) hits
system.l2.overall_hits::.cpu.inst               36683                       # number of overall hits
system.l2.overall_hits::.cpu.icache.prefetcher        47335                       # number of overall hits
system.l2.overall_hits::total                   84018                       # number of overall hits
system.l2.demand_misses::.cpu.inst                511                       # number of demand (read+write) misses
system.l2.demand_misses::.cpu.data                290                       # number of demand (read+write) misses
system.l2.demand_misses::total                    801                       # number of demand (read+write) misses
system.l2.overall_misses::.cpu.inst               511                       # number of overall misses
system.l2.overall_misses::.cpu.data               290                       # number of overall misses
system.l2.overall_misses::total                   801                       # number of overall misses
system.l2.demand_miss_latency::.cpu.inst     40478500                       # number of demand (read+write) miss cycles
system.l2.demand_miss_latency::.cpu.data     24638000                       # number of demand (read+write) miss cycles
system.l2.demand_miss_latency::total         65116500                       # number of demand (read+write) miss cycles
system.l2.overall_miss_latency::.cpu.inst     40478500                       # number of overall miss cycles
system.l2.overall_miss_latency::.cpu.data     24638000                       # number of overall miss cycles
system.l2.overall_miss_latency::total        65116500                       # number of overall miss cycles
system.l2.demand_accesses::.cpu.inst            37194                       # number of demand (read+write) accesses
system.l2.demand_accesses::.cpu.data              290                       # number of demand (read+write) accesses
system.l2.demand_accesses::.cpu.icache.prefetcher        47335                       # number of demand (read+write) accesses
system.l2.demand_accesses::total                84819                       # number of demand (read+write) accesses
system.l2.overall_accesses::.cpu.inst           37194                       # number of overall (read+write) accesses
system.l2.overall_accesses::.cpu.data             290                       # number of overall (read+write) accesses
system.l2.overall_accesses::.cpu.icache.prefetcher        47335                       # number of overall (read+write) accesses
system.l2.overall_accesses::total               84819                       # number of overall (read+write) accesses
system.l2.demand_miss_rate::.cpu.inst        0.013739                       # miss rate for demand accesses
system.l2.demand_miss_rate::.cpu.data               1                       # miss rate for demand accesses
system.l2.demand_miss_rate::total            0.009444                       # miss rate for demand accesses
system.l2.overall_miss_rate::.cpu.inst       0.013739                       # miss rate for overall accesses
system.l2.overall_miss_rate::.cpu.data              1                       # miss rate for overall accesses
system.l2.overall_miss_rate::total           0.009444                       # miss rate for overall accesses
system.l2.demand_avg_miss_latency::.cpu.inst 79214.285714                       # average overall miss latency
system.l2.demand_avg_miss_latency::.cpu.data 84958.620690                       # average overall miss latency
system.l2.demand_avg_miss_latency::total 81294.007491                       # average overall miss latency
system.l2.overall_avg_miss_latency::.cpu.inst 79214.285714                       # average overall miss latency
system.l2.overall_avg_miss_latency::.cpu.data 84958.620690                       # average overall miss latency
system.l2.overall_avg_miss_latency::total 81294.007491                       # average overall miss latency
system.l2.blocked_cycles::no_mshrs                  0                       # number of cycles access was blocked
system.l2.blocked_cycles::no_targets                0                       # number of cycles access was blocked
system.l2.blocked::no_mshrs                         0                       # number of cycles access was blocked
system.l2.blocked::no_targets                       0                       # number of cycles access was blocked
system.l2.avg_blocked_cycles::no_mshrs            nan                       # average number of cycles each access was blocked
system.l2.avg_blocked_cycles::no_targets          nan                       # average number of cycles each access was blocked
system.l2.demand_mshr_misses::.cpu.inst           511                       # number of demand (read+write) MSHR misses
system.l2.demand_mshr_misses::.cpu.data           290                       # number of demand (read+write) MSHR misses
system.l2.demand_mshr_misses::total               801                       # number of demand (read+write) MSHR misses
system.l2.overall_mshr_misses::.cpu.inst          511                       # number of overall MSHR misses
system.l2.overall_mshr_misses::.cpu.data          290                       # number of overall MSHR misses
system.l2.overall_mshr_misses::total              801                       # number of overall MSHR misses
system.l2.demand_mshr_miss_latency::.cpu.inst     35368500                       # number of demand (read+write) MSHR miss cycles
system.l2.demand_mshr_miss_latency::.cpu.data     21738000                       # number of demand (read+write) MSHR miss cycles
system.l2.demand_mshr_miss_latency::total     57106500                       # number of demand (read+write) MSHR miss cycles
system.l2.overall_mshr_miss_latency::.cpu.inst     35368500                       # number of overall MSHR miss cycles
system.l2.overall_mshr_miss_latency::.cpu.data     21738000                       # number of overall MSHR miss cycles
system.l2.overall_mshr_miss_latency::total     57106500                       # number of overall MSHR miss cycles
system.l2.demand_mshr_miss_rate::.cpu.inst     0.013739                       # mshr miss rate for demand accesses
system.l2.demand_mshr_miss_rate::.cpu.data            1                       # mshr miss rate for demand accesses
system.l2.demand_mshr_miss_rate::total       0.009444                       # mshr miss rate for demand accesses
system.l2.overall_mshr_miss_rate::.cpu.inst     0.013739                       # mshr miss rate for overall accesses
system.l2.overall_mshr_miss_rate::.cpu.data            1                       # mshr miss rate for overall accesses
system.l2.overall_mshr_miss_rate::total      0.009444                       # mshr miss rate for overall accesses
system.l2.demand_avg_mshr_miss_latency::.cpu.inst 69214.285714                       # average overall mshr miss latency
system.l2.demand_avg_mshr_miss_latency::.cpu.data 74958.620690                       # average overall mshr miss latency
system.l2.demand_avg_mshr_miss_latency::total 71294.007491                       # average overall mshr miss latency
system.l2.overall_avg_mshr_miss_latency::.cpu.inst 69214.285714                       # average overall mshr miss latency
system.l2.overall_avg_mshr_miss_latency::.cpu.data 74958.620690                       # average overall mshr miss latency
system.l2.overall_avg_mshr_miss_latency::total 71294.007491                       # average overall mshr miss latency
system.l2.replacements                              0                       # number of replacements
system.l2.WritebackClean_hits::.writebacks        84464                       # number of WritebackClean hits
system.l2.WritebackClean_hits::total            84464                       # number of WritebackClean hits
system.l2.WritebackClean_accesses::.writebacks        84464                       # number of WritebackClean accesses(hits+misses)
system.l2.WritebackClean_accesses::total        84464                       # number of WritebackClean accesses(hits+misses)
system.l2.ReadExReq_misses::.cpu.data             184                       # number of ReadExReq misses
system.l2.ReadExReq_misses::total                 184                       # number of ReadExReq misses
system.l2.ReadExReq_miss_latency::.cpu.data     15400500                       # number of ReadExReq miss cycles
system.l2.ReadExReq_miss_latency::total      15400500                       # number of ReadExReq miss cycles
system.l2.ReadExReq_accesses::.cpu.data           184                       # number of ReadExReq accesses(hits+misses)
system.l2.ReadExReq_accesses::total               184                       # number of ReadExReq accesses(hits+misses)
system.l2.ReadExReq_miss_rate::.cpu.data            1                       # miss rate for ReadExReq accesses
system.l2.ReadExReq_miss_rate::total                1                       # miss rate for ReadExReq accesses
system.l2.ReadExReq_avg_miss_latency::.cpu.data 83698.369565                       # average ReadExReq miss latency
system.l2.ReadExReq_avg_miss_latency::total 83698.369565                       # average ReadExReq miss latency
system.l2.ReadExReq_mshr_misses::.cpu.data          184                       # number of ReadExReq MSHR misses
system.l2.ReadExReq_mshr_misses::total            184                       # number of ReadExReq MSHR misses
system.l2.ReadExReq_mshr_miss_latency::.cpu.data     13560500                       # number of ReadExReq MSHR miss cycles
system.l2.ReadExReq_mshr_miss_latency::total     13560500                       # number of ReadExReq MSHR miss cycles
system.l2.ReadExReq_mshr_miss_rate::.cpu.data            1                       # mshr miss rate for ReadExReq accesses
system.l2.ReadExReq_mshr_miss_rate::total            1                       # mshr miss rate for ReadExReq accesses
system.l2.ReadExReq_avg_mshr_miss_latency::.cpu.data 73698.369565                       # average ReadExReq mshr miss latency
system.l2.ReadExReq_avg_mshr_miss_latency::total 73698.369565                       # average ReadExReq mshr miss latency
system.l2.ReadCleanReq_hits::.cpu.inst          36683                       # number of ReadCleanReq hits
system.l2.ReadCleanReq_hits::.cpu.icache.prefetcher        47335                       # number of ReadCleanReq hits
system.l2.ReadCleanReq_hits::total              84018                       # number of ReadCleanReq hits
system.l2.ReadCleanReq_misses::.cpu.inst          511                       # number of ReadCleanReq misses
system.l2.ReadCleanReq_misses::total              511                       # number of ReadCleanReq misses
system.l2.ReadCleanReq_miss_latency::.cpu.inst     40478500                       # number of ReadCleanReq miss cycles
system.l2.ReadCleanReq_miss_latency::total     40478500                       # number of ReadCleanReq miss cycles
system.l2.ReadCleanReq_accesses::.cpu.inst        37194                       # number of ReadCleanReq accesses(hits+misses)
system.l2.ReadCleanReq_accesses::.cpu.icache.prefetcher        47335                       # number of ReadCleanReq accesses(hits+misses)
system.l2.ReadCleanReq_accesses::total          84529                       # number of ReadCleanReq accesses(hits+misses)
system.l2.ReadCleanReq_miss_rate::.cpu.inst     0.013739                       # miss rate for ReadCleanReq accesses
system.l2.ReadCleanReq_miss_rate::total      0.006045                       # miss rate for ReadCleanReq accesses
system.l2.ReadCleanReq_avg_miss_latency::.cpu.inst 79214.285714                       # average ReadCleanReq miss latency
system.l2.ReadCleanReq_avg_miss_latency::total 79214.285714                       # average ReadCleanReq miss latency
system.l2.ReadCleanReq_mshr_misses::.cpu.inst          511                       # number of ReadCleanReq MSHR misses
system.l2.ReadCleanReq_mshr_misses::total          511                       # number of ReadCleanReq MSHR misses
system.l2.ReadCleanReq_mshr_miss_latency::.cpu.inst     35368500                       # number of ReadCleanReq MSHR miss cycles
system.l2.ReadCleanReq_mshr_miss_latency::total     35368500                       # number of ReadCleanReq MSHR miss cycles
system.l2.ReadCleanReq_mshr_miss_rate::.cpu.inst     0.013739                       # mshr miss rate for ReadCleanReq accesses
system.l2.ReadCleanReq_mshr_miss_rate::total     0.006045                       # mshr miss rate for ReadCleanReq accesses
[...]
system.cpu.dcache.demand_miss_latency::total     79405961                       # number of demand (read+write) miss cycles
system.cpu.dcache.overall_miss_latency::.cpu.data     79405961                       # number of overall miss cycles
system.cpu.dcache.overall_miss_latency::total     79405961                       # number of overall miss cycles
system.cpu.dcache.demand_accesses::.cpu.data       313670                       # number of demand (read+write) accesses
system.cpu.dcache.demand_accesses::total       313670                       # number of demand (read+write) accesses
system.cpu.dcache.overall_accesses::.cpu.data       314817                       # number of overall (read+write) accesses
system.cpu.dcache.overall_accesses::total       314817                       # number of overall (read+write) accesses
system.cpu.dcache.demand_miss_rate::.cpu.data     0.003449                       # miss rate for demand accesses
system.cpu.dcache.demand_miss_rate::total     0.003449                       # miss rate for demand accesses
system.cpu.dcache.overall_miss_rate::.cpu.data     0.003443                       # miss rate for overall accesses
system.cpu.dcache.overall_miss_rate::total     0.003443                       # miss rate for overall accesses
system.cpu.dcache.demand_avg_miss_latency::.cpu.data 73388.134011                       # average overall miss latency
system.cpu.dcache.demand_avg_miss_latency::total 73388.134011                       # average overall miss latency
system.cpu.dcache.overall_avg_miss_latency::.cpu.data 73252.731550                       # average overall miss latency
system.cpu.dcache.overall_avg_miss_latency::total 73252.731550                       # average overall miss latency
system.cpu.dcache.blocked_cycles::no_mshrs         2230                       # number of cycles access was blocked
system.cpu.dcache.blocked_cycles::no_targets            0                       # number of cycles access was blocked
system.cpu.dcache.blocked::no_mshrs                60                       # number of cycles access was blocked
system.cpu.dcache.blocked::no_targets               0                       # number of cycles access was blocked
system.cpu.dcache.avg_blocked_cycles::no_mshrs    37.166667                       # average number of cycles each access was blocked
system.cpu.dcache.avg_blocked_cycles::no_targets          nan                       # average number of cycles each access was blocked
system.cpu.dcache.demand_mshr_hits::.cpu.data          788                       # number of demand (read+write) MSHR hits
system.cpu.dcache.demand_mshr_hits::total          788                       # number of demand (read+write) MSHR hits
system.cpu.dcache.overall_mshr_hits::.cpu.data          788                       # number of overall MSHR hits
system.cpu.dcache.overall_mshr_hits::total          788                       # number of overall MSHR hits
system.cpu.dcache.demand_mshr_misses::.cpu.data          294                       # number of demand (read+write) MSHR misses
system.cpu.dcache.demand_mshr_misses::total          294                       # number of demand (read+write) MSHR misses
system.cpu.dcache.overall_mshr_misses::.cpu.data          296                       # number of overall MSHR misses
system.cpu.dcache.overall_mshr_misses::total          296                       # number of overall MSHR misses
system.cpu.dcache.demand_mshr_miss_latency::.cpu.data     25062994                       # number of demand (read+write) MSHR miss cycles
system.cpu.dcache.demand_mshr_miss_latency::total     25062994                       # number of demand (read+write) MSHR miss cycles
system.cpu.dcache.overall_mshr_miss_latency::.cpu.data     25222494                       # number of overall MSHR miss cycles
system.cpu.dcache.overall_mshr_miss_latency::total     25222494                       # number of overall MSHR miss cycles
system.cpu.dcache.demand_mshr_miss_rate::.cpu.data     0.000937                       # mshr miss rate for demand accesses
system.cpu.dcache.demand_mshr_miss_rate::total     0.000937                       # mshr miss rate for demand accesses
system.cpu.dcache.overall_mshr_miss_rate::.cpu.data     0.000940                       # mshr miss rate for overall accesses
system.cpu.dcache.overall_mshr_miss_rate::total     0.000940                       # mshr miss rate for overall accesses
system.cpu.dcache.demand_avg_mshr_miss_latency::.cpu.data 85248.278912                       # average overall mshr miss latency
system.cpu.dcache.demand_avg_mshr_miss_latency::total 85248.278912                       # average overall mshr miss latency
system.cpu.dcache.overall_avg_mshr_miss_latency::.cpu.data 85211.128378                       # average overall mshr miss latency
system.cpu.dcache.overall_avg_mshr_miss_latency::total 85211.128378                       # average overall mshr miss latency
system.cpu.dcache.replacements                      0                       # number of replacements
system.cpu.dcache.ReadReq_hits::.cpu.data       162078                       # number of ReadReq hits
system.cpu.dcache.ReadReq_hits::total          162078                       # number of ReadReq hits
system.cpu.dcache.ReadReq_misses::.cpu.data          232                       # number of ReadReq misses
system.cpu.dcache.ReadReq_misses::total           232                       # number of ReadReq misses
system.cpu.dcache.ReadReq_miss_latency::.cpu.data     17540000                       # number of ReadReq miss cycles
system.cpu.dcache.ReadReq_miss_latency::total     17540000                       # number of ReadReq miss cycles
system.cpu.dcache.ReadReq_accesses::.cpu.data       162310                       # number of ReadReq accesses(hits+misses)
system.cpu.dcache.ReadReq_accesses::total       162310                       # number of ReadReq accesses(hits+misses)
system.cpu.dcache.ReadReq_miss_rate::.cpu.data     0.001429                       # miss rate for ReadReq accesses
system.cpu.dcache.ReadReq_miss_rate::total     0.001429                       # miss rate for ReadReq accesses
system.cpu.dcache.ReadReq_avg_miss_latency::.cpu.data 75603.448276                       # average ReadReq miss latency
system.cpu.dcache.ReadReq_avg_miss_latency::total 75603.448276                       # average ReadReq miss latency
system.cpu.dcache.ReadReq_mshr_hits::.cpu.data          129                       # number of ReadReq MSHR hits
system.cpu.dcache.ReadReq_mshr_hits::total          129                       # number of ReadReq MSHR hits
system.cpu.dcache.ReadReq_mshr_misses::.cpu.data          103                       # number of ReadReq MSHR misses
system.cpu.dcache.ReadReq_mshr_misses::total          103                       # number of ReadReq MSHR misses
system.cpu.dcache.ReadReq_mshr_miss_latency::.cpu.data      9156500                       # number of ReadReq MSHR miss cycles
system.cpu.dcache.ReadReq_mshr_miss_latency::total      9156500                       # number of ReadReq MSHR miss cycles
system.cpu.dcache.ReadReq_mshr_miss_rate::.cpu.data     0.000635                       # mshr miss rate for ReadReq accesses
system.cpu.dcache.ReadReq_mshr_miss_rate::total     0.000635                       # mshr miss rate for ReadReq accesses
system.cpu.dcache.ReadReq_avg_mshr_miss_latency::.cpu.data 88898.058252                       # average ReadReq mshr miss latency
system.cpu.dcache.ReadReq_avg_mshr_miss_latency::total 88898.058252                       # average ReadReq mshr miss latency
system.cpu.dcache.WriteReq_hits::.cpu.data       150510                       # number of WriteReq hits
system.cpu.dcache.WriteReq_hits::total         150510                       # number of WriteReq hits
system.cpu.dcache.WriteReq_misses::.cpu.data          843                       # number of WriteReq misses
system.cpu.dcache.WriteReq_misses::total          843                       # number of WriteReq misses
system.cpu.dcache.WriteReq_miss_latency::.cpu.data     61643463                       # number of WriteReq miss cycles
system.cpu.dcache.WriteReq_miss_latency::total     61643463                       # number of WriteReq miss cycles
system.cpu.dcache.WriteReq_accesses::.cpu.data       151353                       # number of WriteReq accesses(hits+misses)
system.cpu.dcache.WriteReq_accesses::total       151353                       # number of WriteReq accesses(hits+misses)
system.cpu.dcache.WriteReq_miss_rate::.cpu.data     0.005570                       # miss rate for WriteReq accesses
system.cpu.dcache.WriteReq_miss_rate::total     0.005570                       # miss rate for WriteReq accesses
system.cpu.dcache.WriteReq_avg_miss_latency::.cpu.data 73123.918149                       # average WriteReq miss latency
system.cpu.dcache.WriteReq_avg_miss_latency::total 73123.918149                       # average WriteReq miss latency
system.cpu.dcache.WriteReq_mshr_hits::.cpu.data          659                       # number of WriteReq MSHR hits
system.cpu.dcache.WriteReq_mshr_hits::total          659                       # number of WriteReq MSHR hits
system.cpu.dcache.WriteReq_mshr_misses::.cpu.data          184                       # number of WriteReq MSHR misses
system.cpu.dcache.WriteReq_mshr_misses::total          184                       # number of WriteReq MSHR misses
system.cpu.dcache.WriteReq_mshr_miss_latency::.cpu.data     15690996                       # number of WriteReq MSHR miss cycles
system.cpu.dcache.WriteReq_mshr_miss_latency::total     15690996                       # number of WriteReq MSHR miss cycles
system.cpu.dcache.WriteReq_mshr_miss_rate::.cpu.data     0.001216                       # mshr miss rate for WriteReq accesses
system.cpu.dcache.WriteReq_mshr_miss_rate::total     0.001216                       # mshr miss rate for WriteReq accesses
system.cpu.dcache.WriteReq_avg_mshr_miss_latency::.cpu.data 85277.152174                       # average WriteReq mshr miss latency
system.cpu.dcache.WriteReq_avg_mshr_miss_latency::total 85277.152174                       # average WriteReq mshr miss latency
system.cpu.dcache.SoftPFReq_hits::.cpu.data         1145                       # number of SoftPFReq hits
system.cpu.dcache.SoftPFReq_hits::total          1145                       # number of SoftPFReq hits
system.cpu.dcache.SoftPFReq_misses::.cpu.data            2                       # number of SoftPFReq misses
system.cpu.dcache.SoftPFReq_misses::total            2                       # number of SoftPFReq misses
system.cpu.dcache.SoftPFReq_accesses::.cpu.data         1147                       # number of SoftPFReq accesses(hits+misses)
system.cpu.dcache.SoftPFReq_accesses::total         1147                       # number of SoftPFReq accesses(hits+misses)
system.cpu.dcache.SoftPFReq_miss_rate::.cpu.data     0.001744                       # miss rate for SoftPFReq accesses
system.cpu.dcache.SoftPFReq_miss_rate::total     0.001744                       # miss rate for SoftPFReq accesses
system.cpu.dcache.SoftPFReq_mshr_misses::.cpu.data            2                       # number of SoftPFReq MSHR misses
system.cpu.dcache.SoftPFReq_mshr_misses::total            2                       # number of SoftPFReq MSHR misses
system.cpu.dcache.SoftPFReq_mshr_miss_latency::.cpu.data       159500                       # number of SoftPFReq MSHR miss cycles
system.cpu.dcache.SoftPFReq_mshr_miss_latency::total       159500                       # number of SoftPFReq MSHR miss cycles
system.cpu.dcache.SoftPFReq_mshr_miss_rate::.cpu.data     0.001744                       # mshr miss rate for SoftPFReq accesses
system.cpu.dcache.SoftPFReq_mshr_miss_rate::total     0.001744                       # mshr miss rate for SoftPFReq accesses
system.cpu.dcache.SoftPFReq_avg_mshr_miss_latency::.cpu.data        79750                       # average SoftPFReq mshr miss latency
system.cpu.dcache.SoftPFReq_avg_mshr_miss_latency::total        79750                       # average SoftPFReq mshr miss latency
system.cpu.dcache.WriteLineReq_misses::.cpu.data            7                       # number of WriteLineReq misses
system.cpu.dcache.WriteLineReq_misses::total            7                       # number of WriteLineReq misses
system.cpu.dcache.WriteLineReq_miss_latency::.cpu.data       222498                       # number of WriteLineReq miss cycles
system.cpu.dcache.WriteLineReq_miss_latency::total       222498                       # number of WriteLineReq miss cycles
system.cpu.dcache.WriteLineReq_accesses::.cpu.data            7                       # number of WriteLineReq accesses(hits+misses)
system.cpu.dcache.WriteLineReq_accesses::total            7                       # number of WriteLineReq accesses(hits+misses)
system.cpu.dcache.WriteLineReq_miss_rate::.cpu.data            1                       # miss rate for WriteLineReq accesses
system.cpu.dcache.WriteLineReq_miss_rate::total            1                       # miss rate for WriteLineReq accesses
system.cpu.dcache.WriteLineReq_avg_miss_latency::.cpu.data 31785.428571                       # average WriteLineReq miss latency
system.cpu.dcache.WriteLineReq_avg_miss_latency::total 31785.428571                       # average WriteLineReq miss latency
system.cpu.dcache.WriteLineReq_mshr_misses::.cpu.data            7                       # number of WriteLineReq MSHR misses
system.cpu.dcache.WriteLineReq_mshr_misses::total            7                       # number of WriteLineReq MSHR misses
system.cpu.dcache.WriteLineReq_mshr_miss_latency::.cpu.data       215498                       # number of WriteLineReq MSHR miss cycles
system.cpu.dcache.WriteLineReq_mshr_miss_latency::total       215498                       # number of WriteLineReq MSHR miss cycles
system.cpu.dcache.WriteLineReq_mshr_miss_rate::.cpu.data            1                       # mshr miss rate for WriteLineReq accesses
system.cpu.dcache.WriteLineReq_mshr_miss_rate::total            1                       # mshr miss rate for WriteLineReq accesses
system.cpu.dcache.WriteLineReq_avg_mshr_miss_latency::.cpu.data 30785.428571                       # average WriteLineReq mshr miss latency
system.cpu.dcache.WriteLineReq_avg_mshr_miss_latency::total 30785.428571                       # average WriteLineReq mshr miss latency
system.cpu.dcache.LoadLockedReq_hits::.cpu.data         1141                       # number of LoadLockedReq hits
system.cpu.dcache.LoadLockedReq_hits::total         1141                       # number of LoadLockedReq hits
system.cpu.dcache.LoadLockedReq_misses::.cpu.data            2                       # number of LoadLockedReq misses
system.cpu.dcache.LoadLockedReq_misses::total            2                       # number of LoadLockedReq misses
system.cpu.dcache.LoadLockedReq_miss_latency::.cpu.data       173000                       # number of LoadLockedReq miss cycles
system.cpu.dcache.LoadLockedReq_miss_latency::total       173000                       # number of LoadLockedReq miss cycles
system.cpu.dcache.LoadLockedReq_accesses::.cpu.data         1143                       # number of LoadLockedReq accesses(hits+misses)
system.cpu.dcache.LoadLockedReq_accesses::total         1143                       # number of LoadLockedReq accesses(hits+misses)
system.cpu.dcache.LoadLockedReq_miss_rate::.cpu.data     0.001750                       # miss rate for LoadLockedReq accesses
system.cpu.dcache.LoadLockedReq_miss_rate::total     0.001750                       # miss rate for LoadLockedReq accesses
system.cpu.dcache.LoadLockedReq_avg_miss_latency::.cpu.data        86500                       # average LoadLockedReq miss latency
system.cpu.dcache.LoadLockedReq_avg_miss_latency::total        86500                       # average LoadLockedReq miss latency
system.cpu.dcache.LoadLockedReq_mshr_hits::.cpu.data            1                       # number of LoadLockedReq MSHR hits
system.cpu.dcache.LoadLockedReq_mshr_hits::total            1                       # number of LoadLockedReq MSHR hits
system.cpu.dcache.LoadLockedReq_mshr_misses::.cpu.data            1                       # number of LoadLockedReq MSHR misses
system.cpu.dcache.LoadLockedReq_mshr_misses::total            1                       # number of LoadLockedReq MSHR misses
system.cpu.dcache.LoadLockedReq_mshr_miss_latency::.cpu.data        85500                       # number of LoadLockedReq MSHR miss cycles
system.cpu.dcache.LoadLockedReq_mshr_miss_latency::total        85500                       # number of LoadLockedReq MSHR miss cycles
system.cpu.dcache.LoadLockedReq_mshr_miss_rate::.cpu.data     0.000875                       # mshr miss rate for LoadLockedReq accesses
system.cpu.dcache.LoadLockedReq_mshr_miss_rate::total     0.000875                       # mshr miss rate for LoadLockedReq accesses
system.cpu.dcache.LoadLockedReq_avg_mshr_miss_latency::.cpu.data        85500                       # average LoadLockedReq mshr miss latency
system.cpu.dcache.LoadLockedReq_avg_mshr_miss_latency::total        85500                       # average LoadLockedReq mshr miss latency
system.cpu.dcache.StoreCondReq_hits::.cpu.data         1143                       # number of StoreCondReq hits
system.cpu.dcache.StoreCondReq_hits::total         1143                       # number of StoreCondReq hits
system.cpu.dcache.StoreCondReq_accesses::.cpu.data         1143                       # number of StoreCondReq accesses(hits+misses)
system.cpu.dcache.StoreCondReq_accesses::total         1143                       # number of StoreCondReq accesses(hits+misses)
system.cpu.dcache.power_state.pwrStateResidencyTicks::UNDEFINED    793378000                       # Cumulative time (in ticks) in various power states
system.cpu.dcache.tags.tagsinuse           252.678425                       # Cycle average of tags in use
system.cpu.dcache.tags.total_refs              316314                       # Total number of references to valid blocks.
system.cpu.dcache.tags.sampled_refs               297                       # Sample count of references to valid blocks.
system.cpu.dcache.tags.avg_refs           1065.030303                       # Average number of references to valid blocks.
system.cpu.dcache.tags.warmup_cycle            176500                       # Cycle when the warmup percentage was hit.
system.cpu.dcache.tags.occ_blocks::.cpu.data   252.678425                       # Average occupied blocks per requestor
system.cpu.dcache.tags.occ_percent::.cpu.data     0.246756                       # Average percentage of cache occupancy
system.cpu.dcache.tags.occ_percent::total     0.246756                       # Average percentage of cache occupancy
system.cpu.dcache.tags.occ_task_id_blocks::1024          297                       # Occupied blocks per task id
system.cpu.dcache.tags.age_task_id_blocks_1024::0            1                       # Occupied blocks per task id
system.cpu.dcache.tags.age_task_id_blocks_1024::1            9                       # Occupied blocks per task id
system.cpu.dcache.tags.age_task_id_blocks_1024::2          287                       # Occupied blocks per task id
system.cpu.dcache.tags.occ_task_id_percent::1024     0.290039                       # Percentage of cache occupancy per task id
system.cpu.dcache.tags.tag_accesses            634503                       # Number of tag accesses
system.cpu.dcache.tags.data_accesses           634503                       # Number of data accesses
system.cpu.dcache.tags.power_state.pwrStateResidencyTicks::UNDEFINED    793378000                       # Cumulative time (in ticks) in various power states
system.cpu.power_state.pwrStateResidencyTicks::ON    793378000                       # Cumulative time (in ticks) in various power states

---------- End Simulation Statistics   ----------
