
---------- Begin Simulation Statistics ----------
final_tick                                 8301253000                       # Number of ticks from beginning of simulation (restored from checkpoints and never reset)
host_inst_rate                                  48283                       # Simulator instruction rate (inst/s)
host_mem_usage                                 867928                       # Number of bytes of host memory used
host_op_rate                                    49800                       # Simulator op (including micro ops) rate (op/s)
host_seconds                                   207.11                       # Real time elapsed on the host
host_tick_rate                               40080498                       # Simulator tick rate (ticks/s)
sim_freq                                 1000000000000                       # Frequency of simulated ticks
sim_insts                                    10000000                       # Number of instructions simulated
sim_ops                                      10314289                       # Number of ops (including micro ops) simulated
sim_seconds                                  0.008301                       # Number of seconds simulated
sim_ticks                                  8301253000                       # Number of ticks simulated
system.cpu.branchPred.BTBCorrect                    0                       # Number of correct BTB predictions (this stat may not work properly.
system.cpu.branchPred.BTBHitPct             99.829628                       # BTB Hit Percentage
system.cpu.branchPred.BTBHits                  542005                       # Number of BTB hits
system.cpu.branchPred.BTBLookups               542930                       # Number of BTB lookups
system.cpu.branchPred.RASInCorrect                  2                       # Number of incorrect RAS predictions.
system.cpu.branchPred.condIncorrect              5101                       # Number of conditional branches incorrect
system.cpu.branchPred.condPredicted            283176                       # Number of conditional branches predicted
system.cpu.branchPred.indirectHits                 81                       # Number of indirect target hits.
system.cpu.branchPred.indirectLookups             236                       # Number of indirect predictor lookups.
system.cpu.branchPred.indirectMisses              155                       # Number of indirect misses.
system.cpu.branchPred.lookups                 1048585                       # Number of BP lookups
system.cpu.branchPred.usedRAS                  370438                       # Number of times the RAS was used to get a target.
system.cpu.branchPredindirectMispredicted           94                       # Number of mispredicted indirect branches.
system.cpu.cc_regfile_reads                    542850                       # number of cc regfile reads
system.cpu.cc_regfile_writes                   546564                       # number of cc regfile writes
system.cpu.commit.amos                              0                       # Number of atomic instructions committed
system.cpu.commit.branchMispredicts              4806                       # The number of times a branch was mispredicted
system.cpu.commit.branches                     864158                       # Number of branches committed
system.cpu.commit.bw_lim_events                450119                       # number cycles where commit BW limit reached
system.cpu.commit.commitNonSpecStalls             169                       # The number of times commit has been forced to stall to communicate backwards
system.cpu.commit.commitSquashedInsts         2778354                       # The number of squashed insts skipped by commit
system.cpu.commit.committedInsts             10003896                       # Number of instructions committed
system.cpu.commit.committedOps               10318185                       # Number of ops (including micro ops) committed
system.cpu.commit.committed_per_cycle::samples     15414569                       # Number of insts commited each cycle
system.cpu.commit.committed_per_cycle::mean     0.669379                       # Number of insts commited each cycle
system.cpu.commit.committed_per_cycle::stdev     1.618340                       # Number of insts commited each cycle
system.cpu.commit.committed_per_cycle::underflows            0      0.00%      0.00% # Number of insts commited each cycle
system.cpu.commit.committed_per_cycle::0     11248623     72.97%     72.97% # Number of insts commited each cycle
system.cpu.commit.committed_per_cycle::1      2259926     14.66%     87.63% # Number of insts commited each cycle
system.cpu.commit.committed_per_cycle::2       730963      4.74%     92.38% # Number of insts commited each cycle
system.cpu.commit.committed_per_cycle::3       230768      1.50%     93.87% # Number of insts commited each cycle
system.cpu.commit.committed_per_cycle::4       318798      2.07%     95.94% # Number of insts commited each cycle
system.cpu.commit.committed_per_cycle::5        55980      0.36%     96.31% # Number of insts commited each cycle
system.cpu.commit.committed_per_cycle::6        87759      0.57%     96.87% # Number of insts commited each cycle
system.cpu.commit.committed_per_cycle::7        31633      0.21%     97.08% # Number of insts commited each cycle
system.cpu.commit.committed_per_cycle::8       450119      2.92%    100.00% # Number of insts commited each cycle
system.cpu.commit.committed_per_cycle::overflows            0      0.00%    100.00% # Number of insts commited each cycle
system.cpu.commit.committed_per_cycle::min_value            0                       # Number of insts commited each cycle
system.cpu.commit.committed_per_cycle::max_value            8                       # Number of insts commited each cycle
system.cpu.commit.committed_per_cycle::total     15414569                       # Number of insts commited each cycle
system.cpu.commit.fp_insts                          0                       # Number of committed floating point instructions.
system.cpu.commit.function_calls               309623                       # Number of function calls committed.
system.cpu.commit.int_insts                  10148299                       # Number of committed integer instructions.
system.cpu.commit.loads                       1601695                       # Number of loads committed
system.cpu.commit.membars                         142                       # Number of memory barriers committed
system.cpu.commit.op_class_0::No_OpClass           35      0.00%      0.00% # Class of committed instruction
system.cpu.commit.op_class_0::IntAlu          5154710     49.96%     49.96% # Class of committed instruction
system.cpu.commit.op_class_0::IntMult         1623084     15.73%     65.69% # Class of committed instruction
system.cpu.commit.op_class_0::IntDiv           618291      5.99%     71.68% # Class of committed instruction
system.cpu.commit.op_class_0::FloatAdd              0      0.00%     71.68% # Class of committed instruction
system.cpu.commit.op_class_0::FloatCmp              0      0.00%     71.68% # Class of committed instruction
system.cpu.commit.op_class_0::FloatCvt              0      0.00%     71.68% # Class of committed instruction
system.cpu.commit.op_class_0::FloatMult             0      0.00%     71.68% # Class of committed instruction
system.cpu.commit.op_class_0::FloatMultAcc            0      0.00%     71.68% # Class of committed instruction
system.cpu.commit.op_class_0::FloatDiv              0      0.00%     71.68% # Class of committed instruction
system.cpu.commit.op_class_0::FloatMisc             0      0.00%     71.68% # Class of committed instruction
system.cpu.commit.op_class_0::FloatSqrt             0      0.00%     71.68% # Class of committed instruction
system.cpu.commit.op_class_0::SimdAdd              83      0.00%     71.68% # Class of committed instruction
system.cpu.commit.op_class_0::SimdAddAcc            0      0.00%     71.68% # Class of committed instruction
system.cpu.commit.op_class_0::SimdAlu             138      0.00%     71.68% # Class of committed instruction
system.cpu.commit.op_class_0::SimdCmp             140      0.00%     71.68% # Class of committed instruction
system.cpu.commit.op_class_0::SimdCvt               0      0.00%     71.68% # Class of committed instruction
system.cpu.commit.op_class_0::SimdMisc            103      0.00%     71.68% # Class of committed instruction
system.cpu.commit.op_class_0::SimdMult              0      0.00%     71.68% # Class of committed instruction
system.cpu.commit.op_class_0::SimdMultAcc            0      0.00%     71.68% # Class of committed instruction
system.cpu.commit.op_class_0::SimdShift             0      0.00%     71.68% # Class of committed instruction
system.cpu.commit.op_class_0::SimdShiftAcc            0      0.00%     71.68% # Class of committed instruction
system.cpu.commit.op_class_0::SimdDiv               0      0.00%     71.68% # Class of committed instruction
system.cpu.commit.op_class_0::SimdSqrt              0      0.00%     71.68% # Class of committed instruction
system.cpu.commit.op_class_0::SimdFloatAdd            0      0.00%     71.68% # Class of committed instruction
system.cpu.commit.op_class_0::SimdFloatAlu            0      0.00%     71.68% # Class of committed instruction
system.cpu.commit.op_class_0::SimdFloatCmp            0      0.00%     71.68% # Class of committed instruction
system.cpu.commit.op_class_0::SimdFloatCvt            0      0.00%     71.68% # Class of committed instruction
system.cpu.commit.op_class_0::SimdFloatDiv            0      0.00%     71.68% # Class of committed instruction
system.cpu.commit.op_class_0::SimdFloatMisc            0      0.00%     71.68% # Class of committed instruction
system.cpu.commit.op_class_0::SimdFloatMult            0      0.00%     71.68% # Class of committed instruction
system.cpu.commit.op_class_0::SimdFloatMultAcc            0      0.00%     71.68% # Class of committed instruction
system.cpu.commit.op_class_0::SimdFloatSqrt            0      0.00%     71.68% # Class of committed instruction
system.cpu.commit.op_class_0::SimdReduceAdd            0      0.00%     71.68% # Class of committed instruction
system.cpu.commit.op_class_0::SimdReduceAlu            0      0.00%     71.68% # Class of committed instruction
system.cpu.commit.op_class_0::SimdReduceCmp            0      0.00%     71.68% # Class of committed instruction
system.cpu.commit.op_class_0::SimdFloatReduceAdd            0      0.00%     71.68% # Class of committed instruction
system.cpu.commit.op_class_0::SimdFloatReduceCmp            0      0.00%     71.68% # Class of committed instruction
system.cpu.commit.op_class_0::SimdAes               0      0.00%     71.68% # Class of committed instruction
system.cpu.commit.op_class_0::SimdAesMix            0      0.00%     71.68% # Class of committed instruction
system.cpu.commit.op_class_0::SimdSha1Hash            0      0.00%     71.68% # Class of committed instruction
system.cpu.commit.op_class_0::SimdSha1Hash2            0      0.00%     71.68% # Class of committed instruction
system.cpu.commit.op_class_0::SimdSha256Hash            0      0.00%     71.68% # Class of committed instruction
system.cpu.commit.op_class_0::SimdSha256Hash2            0      0.00%     71.68% # Class of committed instruction
system.cpu.commit.op_class_0::SimdShaSigma2            0      0.00%     71.68% # Class of committed instruction
system.cpu.commit.op_class_0::SimdShaSigma3            0      0.00%     71.68% # Class of committed instruction
system.cpu.commit.op_class_0::SimdPredAlu            0      0.00%     71.68% # Class of committed instruction
system.cpu.commit.op_class_0::MemRead         1601695     15.52%     87.21% # Class of committed instruction
system.cpu.commit.op_class_0::MemWrite        1319906     12.79%    100.00% # Class of committed instruction
system.cpu.commit.op_class_0::FloatMemRead            0      0.00%    100.00% # Class of committed instruction
system.cpu.commit.op_class_0::FloatMemWrite            0      0.00%    100.00% # Class of committed instruction
system.cpu.commit.op_class_0::IprAccess             0      0.00%    100.00% # Class of committed instruction
system.cpu.commit.op_class_0::InstPrefetch            0      0.00%    100.00% # Class of committed instruction
system.cpu.commit.op_class_0::total          10318185                       # Class of committed instruction
system.cpu.commit.refs                        2921601                       # Number of memory references committed
system.cpu.commit.swp_count                         0                       # Number of s/w prefetches committed
system.cpu.commit.vec_insts                      1073                       # Number of committed Vector instructions.
system.cpu.committedInsts                    10000000                       # Number of Instructions Simulated
system.cpu.committedOps                      10314289                       # Number of Ops (including micro ops) Simulated
system.cpu.cpi                               1.660251                       # CPI: Cycles Per Instruction
system.cpu.cpi_total                         1.660251                       # CPI: Total CPI of All Threads
system.cpu.decode.BlockedCycles               1832427                       # Number of cycles decode is blocked
system.cpu.decode.BranchMispred                   297                       # Number of times decode detected a branch misprediction
system.cpu.decode.BranchResolved               541642                       # Number of times decode resolved a branch
system.cpu.decode.DecodedInsts               13425645                       # Number of instructions handled by decode
system.cpu.decode.IdleCycles                 11529406                       # Number of cycles decode is idle
system.cpu.decode.RunCycles                   2332213                       # Number of cycles decode is running
system.cpu.decode.SquashCycles                  43517                       # Number of cycles decode is squashing
system.cpu.decode.SquashedInsts                  1017                       # Number of squashed instructions handled by decode
system.cpu.decode.UnblockCycles                 41841                       # Number of cycles decode is unblocking
system.cpu.dtb.accesses                             0                       # DTB accesses
system.cpu.dtb.align_faults                         0                       # Number of TLB faults due to alignment restrictions
system.cpu.dtb.domain_faults                        0                       # Number of TLB faults due to domain restrictions
system.cpu.dtb.flush_entries                        0                       # Number of entries that have been flushed from TLB
system.cpu.dtb.flush_tlb                            0                       # Number of times complete TLB was flushed
system.cpu.dtb.flush_tlb_asid                       0                       # Number of times TLB was flushed by ASID
system.cpu.dtb.flush_tlb_mva                        0                       # Number of times TLB was flushed by MVA
system.cpu.dtb.flush_tlb_mva_asid                   0                       # Number of times TLB was flushed by MVA & ASID
system.cpu.dtb.hits                                 0                       # DTB hits
system.cpu.dtb.inst_accesses                        0                       # ITB inst accesses
system.cpu.dtb.inst_hits                            0                       # ITB inst hits
system.cpu.dtb.inst_misses                          0                       # ITB inst misses
system.cpu.dtb.misses                               0                       # DTB misses
system.cpu.dtb.perms_faults                         0                       # Number of TLB faults due to permissions restrictions
system.cpu.dtb.prefetch_faults                      0                       # Number of TLB faults due to prefetch
system.cpu.dtb.read_accesses                        0                       # DTB read accesses
system.cpu.dtb.read_hits                            0                       # DTB read hits
system.cpu.dtb.read_misses                          0                       # DTB read misses
system.cpu.dtb.stage2_mmu.stage2_tlb.accesses            0                       # DTB accesses
system.cpu.dtb.stage2_mmu.stage2_tlb.align_faults            0                       # Number of TLB faults due to alignment restrictions
system.cpu.dtb.stage2_mmu.stage2_tlb.domain_faults            0                       # Number of TLB faults due to domain restrictions
system.cpu.dtb.stage2_mmu.stage2_tlb.flush_entries            0                       # Number of entries that have been flushed from TLB
system.cpu.dtb.stage2_mmu.stage2_tlb.flush_tlb            0                       # Number of times complete TLB was flushed
system.cpu.dtb.stage2_mmu.stage2_tlb.flush_tlb_asid            0                       # Number of times TLB was flushed by ASID
system.cpu.dtb.stage2_mmu.stage2_tlb.flush_tlb_mva            0                       # Number of times TLB was flushed by MVA
system.cpu.dtb.stage2_mmu.stage2_tlb.flush_tlb_mva_asid            0                       # Number of times TLB was flushed by MVA & ASID
system.cpu.dtb.stage2_mmu.stage2_tlb.hits            0                       # DTB hits
system.cpu.dtb.stage2_mmu.stage2_tlb.inst_accesses            0                       # ITB inst accesses
system.cpu.dtb.stage2_mmu.stage2_tlb.inst_hits            0                       # ITB inst hits
system.cpu.dtb.stage2_mmu.stage2_tlb.inst_misses            0                       # ITB inst misses
system.cpu.dtb.stage2_mmu.stage2_tlb.misses            0                       # DTB misses
system.cpu.dtb.stage2_mmu.stage2_tlb.perms_faults            0                       # Number of TLB faults due to permissions restrictions
system.cpu.dtb.stage2_mmu.stage2_tlb.prefetch_faults            0                       # Number of TLB faults due to prefetch
system.cpu.dtb.stage2_mmu.stage2_tlb.read_accesses            0                       # DTB read accesses
system.cpu.dtb.stage2_mmu.stage2_tlb.read_hits            0                       # DTB read hits
system.cpu.dtb.stage2_mmu.stage2_tlb.read_misses            0                       # DTB read misses
system.cpu.dtb.stage2_mmu.stage2_tlb.walker.walkRequestOrigin_Requested::Data            0                       # Table walker requests started/completed, data/inst
system.cpu.dtb.stage2_mmu.stage2_tlb.walker.walkRequestOrigin_Requested::Inst            0                       # Table walker requests started/completed, data/inst
system.cpu.dtb.stage2_mmu.stage2_tlb.walker.walkRequestOrigin_Requested::total            0                       # Table walker requests started/completed, data/inst
system.cpu.dtb.stage2_mmu.stage2_tlb.walker.walkRequestOrigin_Completed::Data            0                       # Table walker requests started/completed, data/inst
system.cpu.dtb.stage2_mmu.stage2_tlb.walker.walkRequestOrigin_Completed::Inst            0                       # Table walker requests started/completed, data/inst
system.cpu.dtb.stage2_mmu.stage2_tlb.walker.walkRequestOrigin_Completed::total            0                       # Table walker requests started/completed, data/inst
system.cpu.dtb.stage2_mmu.stage2_tlb.walker.walkRequestOrigin::total            0                       # Table walker requests started/completed, data/inst
system.cpu.dtb.stage2_mmu.stage2_tlb.walker.walks            0                       # Table walker walks requested
system.cpu.dtb.stage2_mmu.stage2_tlb.write_accesses            0                       # DTB write accesses
system.cpu.dtb.stage2_mmu.stage2_tlb.write_hits            0                       # DTB write hits
system.cpu.dtb.stage2_mmu.stage2_tlb.write_misses            0                       # DTB write misses
system.cpu.dtb.walker.walkRequestOrigin_Requested::Data            0                       # Table walker requests started/completed, data/inst
system.cpu.dtb.walker.walkRequestOrigin_Requested::Inst            0                       # Table walker requests started/completed, data/inst
system.cpu.dtb.walker.walkRequestOrigin_Requested::total            0                       # Table walker requests started/completed, data/inst
system.cpu.dtb.walker.walkRequestOrigin_Completed::Data            0                       # Table walker requests started/completed, data/inst
system.cpu.dtb.walker.walkRequestOrigin_Completed::Inst            0                       # Table walker requests started/completed, data/inst
system.cpu.dtb.walker.walkRequestOrigin_Completed::total            0                       # Table walker requests started/completed, data/inst
system.cpu.dtb.walker.walkRequestOrigin::total            0                       # Table walker requests started/completed, data/inst
system.cpu.dtb.walker.walks                         0                       # Table walker walks requested
system.cpu.dtb.write_accesses                       0                       # DTB write accesses
system.cpu.dtb.write_hits                           0                       # DTB write hits
system.cpu.dtb.write_misses                         0                       # DTB write misses
system.cpu.fetch.Branches                     1048585                       # Number of branches that fetch encountered
system.cpu.fetch.CacheLines                   1618346                       # Number of cache lines fetched
system.cpu.fetch.Cycles                       3592397                       # Number of cycles fetch has run and was not squashing or blocked
system.cpu.fetch.IcacheSquashes                 36058                       # Number of outstanding Icache misses that were squashed
system.cpu.fetch.IcacheWaitRetryStallCycles          141                       # Number of stall cycles due to full MSHR
system.cpu.fetch.Insts                       13029394                       # Number of instructions fetch has processed
system.cpu.fetch.MiscStallCycles                   31                       # Number of cycles fetch has spent waiting on interrupts, or bad addresses, or out of MSHRs
system.cpu.fetch.SquashCycles                   87624                       # Number of cycles fetch has spent squashing
system.cpu.fetch.branchRate                  0.063158                       # Number of branch fetches per cycle
system.cpu.fetch.icacheStallCycles           12143023                       # Number of cycles fetch is stalled on an Icache miss
system.cpu.fetch.predictedBranches             912524                       # Number of branches that fetch has predicted taken
system.cpu.fetch.rate                        0.784785                       # Number of inst fetches per cycle
system.cpu.fetch.rateDist::samples           15779404                       # Number of instructions fetched each cycle (Total)
system.cpu.fetch.rateDist::mean              0.852569                       # Number of instructions fetched each cycle (Total)
system.cpu.fetch.rateDist::stdev             2.236517                       # Number of instructions fetched each cycle (Total)
system.cpu.fetch.rateDist::underflows               0      0.00%      0.00% # Number of instructions fetched each cycle (Total)
system.cpu.fetch.rateDist::0                 13311776     84.36%     84.36% # Number of instructions fetched each cycle (Total)
system.cpu.fetch.rateDist::1                   191173      1.21%     85.57% # Number of instructions fetched each cycle (Total)
system.cpu.fetch.rateDist::2                   435389      2.76%     88.33% # Number of instructions fetched each cycle (Total)
system.cpu.fetch.rateDist::3                   122192      0.77%     89.11% # Number of instructions fetched each cycle (Total)
system.cpu.fetch.rateDist::4                   102133      0.65%     89.75% # Number of instructions fetched each cycle (Total)
system.cpu.fetch.rateDist::5                   266053      1.69%     91.44% # Number of instructions fetched each cycle (Total)
system.cpu.fetch.rateDist::6                   216681      1.37%     92.81% # Number of instructions fetched each cycle (Total)
system.cpu.fetch.rateDist::7                    86434      0.55%     93.36% # Number of instructions fetched each cycle (Total)
system.cpu.fetch.rateDist::8                  1047573      6.64%    100.00% # Number of instructions fetched each cycle (Total)
system.cpu.fetch.rateDist::overflows                0      0.00%    100.00% # Number of instructions fetched each cycle (Total)
system.cpu.fetch.rateDist::min_value                0                       # Number of instructions fetched each cycle (Total)
system.cpu.fetch.rateDist::max_value                8                       # Number of instructions fetched each cycle (Total)
system.cpu.fetch.rateDist::total             15779404                       # Number of instructions fetched each cycle (Total)
system.cpu.icache.prefetcher.num_hwpf_issued       687749                       # number of hwpf issued
system.cpu.icache.prefetcher.pfBufferHit        45315                       # number of redundant prefetches already in prefetch queue
system.cpu.icache.prefetcher.pfIdentified    103847751                       # number of prefetch candidates identified
system.cpu.icache.prefetcher.pfInCache              0                       # number of redundant prefetches already in cache/mshr dropped
system.cpu.icache.prefetcher.pfRemovedFull         6783                       # number of prefetches dropped due to prefetch queue size
system.cpu.icache.prefetcher.pfSpanPage      72100183                       # number of prefetches that crossed the page
system.cpu.idleCycles                          823103                       # Total number of cycles that the CPU has spent unscheduled due to idling
system.cpu.iew.branchMispredicts                 4894                       # Number of branch mispredicts detected at execute
system.cpu.iew.exec_branches                  1019020                       # Number of branches executed
system.cpu.iew.exec_nop                          3936                       # number of nop insts executed
system.cpu.iew.exec_rate                     0.774377                       # Inst execution rate
system.cpu.iew.exec_refs                      3898353                       # number of memory reference insts executed
system.cpu.iew.exec_stores                    1810473                       # Number of stores executed
system.cpu.iew.exec_swp                             0                       # number of swp insts executed
system.cpu.iew.iewBlockCycles                  322456                       # Number of cycles IEW is blocking
system.cpu.iew.iewDispLoadInsts               2101055                       # Number of dispatched load instructions
system.cpu.iew.iewDispNonSpecInsts                199                       # Number of dispatched non-speculative instructions
system.cpu.iew.iewDispSquashedInsts               401                       # Number of squashed instructions skipped by dispatch
system.cpu.iew.iewDispStoreInsts              1864288                       # Number of dispatched store instructions
system.cpu.iew.iewDispatchedInsts            13323023                       # Number of instructions dispatched to IQ
system.cpu.iew.iewExecLoadInsts               2087880                       # Number of load instructions executed
system.cpu.iew.iewExecSquashedInsts             68869                       # Number of squashed instructions skipped in execute
system.cpu.iew.iewExecutedInsts              12856605                       # Number of executed instructions
system.cpu.iew.iewIQFullEvents                     10                       # Number of times the IQ has become full, causing a stall
system.cpu.iew.iewIdleCycles                        0                       # Number of cycles IEW is idle
system.cpu.iew.iewLSQFullEvents               1296008                       # Number of times the LSQ has become full, causing a stall
system.cpu.iew.iewSquashCycles                  43517                       # Number of cycles IEW is squashing
system.cpu.iew.iewUnblockCycles               1296019                       # Number of cycles IEW is unblocking
system.cpu.iew.lsq.thread0.blockedLoads             0                       # Number of blocked loads due to partial load-store forwarding
system.cpu.iew.lsq.thread0.cacheBlocked         15961                       # Number of times an access to memory failed due to the cache being blocked
system.cpu.iew.lsq.thread0.forwLoads              282                       # Number of loads that had data forwarded from stores
system.cpu.iew.lsq.thread0.ignoredResponses           10                       # Number of memory responses ignored because the instruction is squashed
system.cpu.iew.lsq.thread0.invAddrLoads             0                       # Number of loads ignored due to an invalid address
system.cpu.iew.lsq.thread0.invAddrSwpfs             0                       # Number of software prefetches ignored due to an invalid address
system.cpu.iew.lsq.thread0.memOrderViolation           31                       # Number of memory ordering violations
system.cpu.iew.lsq.thread0.rescheduledLoads           91                       # Number of loads that were rescheduled
system.cpu.iew.lsq.thread0.squashedLoads       499350                       # Number of loads squashed
system.cpu.iew.lsq.thread0.squashedStores       544379                       # Number of stores squashed
system.cpu.iew.memOrderViolationEvents             31                       # Number of memory order violations
system.cpu.iew.predictedNotTakenIncorrect          735                       # Number of branches that were predicted not taken incorrectly
system.cpu.iew.predictedTakenIncorrect           4159                       # Number of branches that were predicted taken incorrectly
system.cpu.iew.wb_consumers                  12644932                       # num instructions consuming a value
system.cpu.iew.wb_count                      12450909                       # cumulative count of insts written-back
system.cpu.iew.wb_fanout                     0.698188                       # average fanout of values written-back
system.cpu.iew.wb_producers                   8828535                       # num instructions producing a value
system.cpu.iew.wb_rate                       0.749941                       # insts written-back per cycle
system.cpu.iew.wb_sent                       12854199                       # cumulative count of insts sent to commit
system.cpu.int_regfile_reads                 19792871                       # number of integer regfile reads
system.cpu.int_regfile_writes                10592952                       # number of integer regfile writes
system.cpu.ipc                               0.602319                       # IPC: Instructions Per Cycle
system.cpu.ipc_total                         0.602319                       # IPC: Total IPC of All Threads
system.cpu.iq.FU_type_0::No_OpClass                37      0.00%      0.00% # Type of FU issued
system.cpu.iq.FU_type_0::IntAlu               6452671     49.92%     49.92% # Type of FU issued
system.cpu.iq.FU_type_0::IntMult              1919295     14.85%     64.77% # Type of FU issued
system.cpu.iq.FU_type_0::IntDiv                647247      5.01%     69.78% # Type of FU issued
system.cpu.iq.FU_type_0::FloatAdd                   0      0.00%     69.78% # Type of FU issued
system.cpu.iq.FU_type_0::FloatCmp                   0      0.00%     69.78% # Type of FU issued
system.cpu.iq.FU_type_0::FloatCvt                   0      0.00%     69.78% # Type of FU issued
system.cpu.iq.FU_type_0::FloatMult                  0      0.00%     69.78% # Type of FU issued
system.cpu.iq.FU_type_0::FloatMultAcc               0      0.00%     69.78% # Type of FU issued
system.cpu.iq.FU_type_0::FloatDiv                   0      0.00%     69.78% # Type of FU issued
system.cpu.iq.FU_type_0::FloatMisc                  0      0.00%     69.78% # Type of FU issued
system.cpu.iq.FU_type_0::FloatSqrt                  0      0.00%     69.78% # Type of FU issued
system.cpu.iq.FU_type_0::SimdAdd                   90      0.00%     69.78% # Type of FU issued
system.cpu.iq.FU_type_0::SimdAddAcc                 0      0.00%     69.78% # Type of FU issued
system.cpu.iq.FU_type_0::SimdAlu                  150      0.00%     69.78% # Type of FU issued
system.cpu.iq.FU_type_0::SimdCmp                  148      0.00%     69.78% # Type of FU issued
system.cpu.iq.FU_type_0::SimdCvt                    0      0.00%     69.78% # Type of FU issued
system.cpu.iq.FU_type_0::SimdMisc                 106      0.00%     69.78% # Type of FU issued
system.cpu.iq.FU_type_0::SimdMult                   0      0.00%     69.78% # Type of FU issued
system.cpu.iq.FU_type_0::SimdMultAcc                0      0.00%     69.78% # Type of FU issued
system.cpu.iq.FU_type_0::SimdShift                  0      0.00%     69.78% # Type of FU issued
system.cpu.iq.FU_type_0::SimdShiftAcc               0      0.00%     69.78% # Type of FU issued
system.cpu.iq.FU_type_0::SimdDiv                    0      0.00%     69.78% # Type of FU issued
system.cpu.iq.FU_type_0::SimdSqrt                   0      0.00%     69.78% # Type of FU issued
system.cpu.iq.FU_type_0::SimdFloatAdd               0      0.00%     69.78% # Type of FU issued
system.cpu.iq.FU_type_0::SimdFloatAlu               0      0.00%     69.78% # Type of FU issued
system.cpu.iq.FU_type_0::SimdFloatCmp               0      0.00%     69.78% # Type of FU issued
system.cpu.iq.FU_type_0::SimdFloatCvt               0      0.00%     69.78% # Type of FU issued
system.cpu.iq.FU_type_0::SimdFloatDiv               0      0.00%     69.78% # Type of FU issued
system.cpu.iq.FU_type_0::SimdFloatMisc              0      0.00%     69.78% # Type of FU issued
system.cpu.iq.FU_type_0::SimdFloatMult              0      0.00%     69.78% # Type of FU issued
system.cpu.iq.FU_type_0::SimdFloatMultAcc            0      0.00%     69.78% # Type of FU issued
system.cpu.iq.FU_type_0::SimdFloatSqrt              0      0.00%     69.78% # Type of FU issued
system.cpu.iq.FU_type_0::SimdReduceAdd              0      0.00%     69.78% # Type of FU issued
system.cpu.iq.FU_type_0::SimdReduceAlu              0      0.00%     69.78% # Type of FU issued
system.cpu.iq.FU_type_0::SimdReduceCmp              0      0.00%     69.78% # Type of FU issued
system.cpu.iq.FU_type_0::SimdFloatReduceAdd            0      0.00%     69.78% # Type of FU issued
system.cpu.iq.FU_type_0::SimdFloatReduceCmp            0      0.00%     69.78% # Type of FU issued
system.cpu.iq.FU_type_0::SimdAes                    0      0.00%     69.78% # Type of FU issued
system.cpu.iq.FU_type_0::SimdAesMix                 0      0.00%     69.78% # Type of FU issued
system.cpu.iq.FU_type_0::SimdSha1Hash               0      0.00%     69.78% # Type of FU issued
system.cpu.iq.FU_type_0::SimdSha1Hash2              0      0.00%     69.78% # Type of FU issued
system.cpu.iq.FU_type_0::SimdSha256Hash             0      0.00%     69.78% # Type of FU issued
system.cpu.iq.FU_type_0::SimdSha256Hash2            0      0.00%     69.78% # Type of FU issued
system.cpu.iq.FU_type_0::SimdShaSigma2              0      0.00%     69.78% # Type of FU issued
system.cpu.iq.FU_type_0::SimdShaSigma3              0      0.00%     69.78% # Type of FU issued
system.cpu.iq.FU_type_0::SimdPredAlu                0      0.00%     69.78% # Type of FU issued
system.cpu.iq.FU_type_0::MemRead              2088711     16.16%     85.94% # Type of FU issued
system.cpu.iq.FU_type_0::MemWrite             1817022     14.06%    100.00% # Type of FU issued
system.cpu.iq.FU_type_0::FloatMemRead               0      0.00%    100.00% # Type of FU issued
system.cpu.iq.FU_type_0::FloatMemWrite              0      0.00%    100.00% # Type of FU issued
system.cpu.iq.FU_type_0::IprAccess                  0      0.00%    100.00% # Type of FU issued
system.cpu.iq.FU_type_0::InstPrefetch               0      0.00%    100.00% # Type of FU issued
system.cpu.iq.FU_type_0::total               12925477                       # Type of FU issued
system.cpu.iq.fp_alu_accesses                       0                       # Number of floating point alu accesses
system.cpu.iq.fp_inst_queue_reads                   0                       # Number of floating instruction queue reads
system.cpu.iq.fp_inst_queue_wakeup_accesses            0                       # Number of floating instruction queue wakeup accesses
system.cpu.iq.fp_inst_queue_writes                  0                       # Number of floating instruction queue writes
system.cpu.iq.fu_busy_cnt                     7238736                       # FU busy when requested
system.cpu.iq.fu_busy_rate                   0.560036                       # FU busy rate (busy events/executed inst)
system.cpu.iq.fu_full::No_OpClass                   0      0.00%      0.00% # attempts to use FU when none available
system.cpu.iq.fu_full::IntAlu                   79716      1.10%      1.10% # attempts to use FU when none available
system.cpu.iq.fu_full::IntMult                3461147     47.81%     48.92% # attempts to use FU when none available
system.cpu.iq.fu_full::IntDiv                 3607861     49.84%     98.76% # attempts to use FU when none available
system.cpu.iq.fu_full::FloatAdd                     0      0.00%     98.76% # attempts to use FU when none available
system.cpu.iq.fu_full::FloatCmp                     0      0.00%     98.76% # attempts to use FU when none available
system.cpu.iq.fu_full::FloatCvt                     0      0.00%     98.76% # attempts to use FU when none available
system.cpu.iq.fu_full::FloatMult                    0      0.00%     98.76% # attempts to use FU when none available
system.cpu.iq.fu_full::FloatMultAcc                 0      0.00%     98.76% # attempts to use FU when none available
system.cpu.iq.fu_full::FloatDiv                     0      0.00%     98.76% # attempts to use FU when none available
system.cpu.iq.fu_full::FloatMisc                    0      0.00%     98.76% # attempts to use FU when none available
system.cpu.iq.fu_full::FloatSqrt                    0      0.00%     98.76% # attempts to use FU when none available
system.cpu.iq.fu_full::SimdAdd                      0      0.00%     98.76% # attempts to use FU when none available
system.cpu.iq.fu_full::SimdAddAcc                   0      0.00%     98.76% # attempts to use FU when none available
system.cpu.iq.fu_full::SimdAlu                      1      0.00%     98.76% # attempts to use FU when none available
system.cpu.iq.fu_full::SimdCmp                      4      0.00%     98.76% # attempts to use FU when none available
system.cpu.iq.fu_full::SimdCvt                      0      0.00%     98.76% # attempts to use FU when none available
system.cpu.iq.fu_full::SimdMisc                     0      0.00%     98.76% # attempts to use FU when none available
system.cpu.iq.fu_full::SimdMult                     0      0.00%     98.76% # attempts to use FU when none available
system.cpu.iq.fu_full::SimdMultAcc                  0      0.00%     98.76% # attempts to use FU when none available
system.cpu.iq.fu_full::SimdShift                    0      0.00%     98.76% # attempts to use FU when none available
system.cpu.iq.fu_full::SimdShiftAcc                 0      0.00%     98.76% # attempts to use FU when none available
system.cpu.iq.fu_full::SimdDiv                      0      0.00%     98.76% # attempts to use FU when none available
system.cpu.iq.fu_full::SimdSqrt                     0      0.00%     98.76% # attempts to use FU when none available
system.cpu.iq.fu_full::SimdFloatAdd                 0      0.00%     98.76% # attempts to use FU when none available
system.cpu.iq.fu_full::SimdFloatAlu                 0      0.00%     98.76% # attempts to use FU when none available
system.cpu.iq.fu_full::SimdFloatCmp                 0      0.00%     98.76% # attempts to use FU when none available
system.cpu.iq.fu_full::SimdFloatCvt                 0      0.00%     98.76% # attempts to use FU when none available
system.cpu.iq.fu_full::SimdFloatDiv                 0      0.00%     98.76% # attempts to use FU when none available
system.cpu.iq.fu_full::SimdFloatMisc                0      0.00%     98.76% # attempts to use FU when none available
system.cpu.iq.fu_full::SimdFloatMult                0      0.00%     98.76% # attempts to use FU when none available
system.cpu.iq.fu_full::SimdFloatMultAcc             0      0.00%     98.76% # attempts to use FU when none available
system.cpu.iq.fu_full::SimdFloatSqrt                0      0.00%     98.76% # attempts to use FU when none available
system.cpu.iq.fu_full::SimdReduceAdd                0      0.00%     98.76% # attempts to use FU when none available
system.cpu.iq.fu_full::SimdReduceAlu                0      0.00%     98.76% # attempts to use FU when none available
system.cpu.iq.fu_full::SimdReduceCmp                0      0.00%     98.76% # attempts to use FU when none available
system.cpu.iq.fu_full::SimdFloatReduceAdd            0      0.00%     98.76% # attempts to use FU when none available
system.cpu.iq.fu_full::SimdFloatReduceCmp            0      0.00%     98.76% # attempts to use FU when none available
system.cpu.iq.fu_full::SimdAes                      0      0.00%     98.76% # attempts to use FU when none available
system.cpu.iq.fu_full::SimdAesMix                   0      0.00%     98.76% # attempts to use FU when none available
system.cpu.iq.fu_full::SimdSha1Hash                 0      0.00%     98.76% # attempts to use FU when none available
system.cpu.iq.fu_full::SimdSha1Hash2                0      0.00%     98.76% # attempts to use FU when none available
system.cpu.iq.fu_full::SimdSha256Hash               0      0.00%     98.76% # attempts to use FU when none available
system.cpu.iq.fu_full::SimdSha256Hash2              0      0.00%     98.76% # attempts to use FU when none available
system.cpu.iq.fu_full::SimdShaSigma2                0      0.00%     98.76% # attempts to use FU when none available
system.cpu.iq.fu_full::SimdShaSigma3                0      0.00%     98.76% # attempts to use FU when none available
system.cpu.iq.fu_full::SimdPredAlu                  0      0.00%     98.76% # attempts to use FU when none available
system.cpu.iq.fu_full::MemRead                  77503      1.07%     99.83% # attempts to use FU when none available
system.cpu.iq.fu_full::MemWrite                 12504      0.17%    100.00% # attempts to use FU when none available
system.cpu.iq.fu_full::FloatMemRead                 0      0.00%    100.00% # attempts to use FU when none available
system.cpu.iq.fu_full::FloatMemWrite                0      0.00%    100.00% # attempts to use FU when none available
system.cpu.iq.fu_full::IprAccess                    0      0.00%    100.00% # attempts to use FU when none available
system.cpu.iq.fu_full::InstPrefetch                 0      0.00%    100.00% # attempts to use FU when none available
system.cpu.iq.int_alu_accesses               20162885                       # Number of integer alu accesses
system.cpu.iq.int_inst_queue_reads           48930844                       # Number of integer instruction queue reads
system.cpu.iq.int_inst_queue_wakeup_accesses     12449774                       # Number of integer instruction queue wakeup accesses
system.cpu.iq.int_inst_queue_writes          16322256                       # Number of integer instruction queue writes
system.cpu.iq.iqInstsAdded                   13318888                       # Number of instructions added to the IQ (excludes non-spec)
system.cpu.iq.iqInstsIssued                  12925477                       # Number of instructions issued
system.cpu.iq.iqNonSpecInstsAdded                 199                       # Number of non-speculative instructions added to the IQ
system.cpu.iq.iqSquashedInstsExamined         3004727                       # Number of squashed instructions iterated over during squash; mainly for profiling
system.cpu.iq.iqSquashedInstsIssued             64266                       # Number of squashed instructions issued
system.cpu.iq.iqSquashedNonSpecRemoved             30                       # Number of squashed non-spec instructions that were removed
system.cpu.iq.iqSquashedOperandsExamined      1699879                       # Number of squashed operands that are examined and possibly removed from graph
system.cpu.iq.issued_per_cycle::samples      15779404                       # Number of insts issued each cycle
system.cpu.iq.issued_per_cycle::mean         0.819136                       # Number of insts issued each cycle
system.cpu.iq.issued_per_cycle::stdev        1.405053                       # Number of insts issued each cycle
system.cpu.iq.issued_per_cycle::underflows            0      0.00%      0.00% # Number of insts issued each cycle
system.cpu.iq.issued_per_cycle::0            10154772     64.35%     64.35% # Number of insts issued each cycle
system.cpu.iq.issued_per_cycle::1             1974885     12.52%     76.87% # Number of insts issued each cycle
system.cpu.iq.issued_per_cycle::2             1943820     12.32%     89.19% # Number of insts issued each cycle
system.cpu.iq.issued_per_cycle::3              800433      5.07%     94.26% # Number of insts issued each cycle
system.cpu.iq.issued_per_cycle::4              233838      1.48%     95.74% # Number of insts issued each cycle
system.cpu.iq.issued_per_cycle::5              405312      2.57%     98.31% # Number of insts issued each cycle
system.cpu.iq.issued_per_cycle::6              164951      1.05%     99.36% # Number of insts issued each cycle
system.cpu.iq.issued_per_cycle::7              101109      0.64%    100.00% # Number of insts issued each cycle
system.cpu.iq.issued_per_cycle::8                 284      0.00%    100.00% # Number of insts issued each cycle
system.cpu.iq.issued_per_cycle::overflows            0      0.00%    100.00% # Number of insts issued each cycle
system.cpu.iq.issued_per_cycle::min_value            0                       # Number of insts issued each cycle
system.cpu.iq.issued_per_cycle::max_value            8                       # Number of insts issued each cycle
system.cpu.iq.issued_per_cycle::total        15779404                       # Number of insts issued each cycle
system.cpu.iq.rate                           0.778526                       # Inst issue rate
system.cpu.iq.vec_alu_accesses                   1291                       # Number of vector alu accesses
system.cpu.iq.vec_inst_queue_reads               2513                       # Number of vector instruction queue reads
system.cpu.iq.vec_inst_queue_wakeup_accesses         1135                       # Number of vector instruction queue wakeup accesses
system.cpu.iq.vec_inst_queue_writes              1587                       # Number of vector instruction queue writes
system.cpu.itb.accesses                             0                       # DTB accesses
system.cpu.itb.align_faults                         0                       # Number of TLB faults due to alignment restrictions
system.cpu.itb.domain_faults                        0                       # Number of TLB faults due to domain restrictions
system.cpu.itb.flush_entries                        0                       # Number of entries that have been flushed from TLB
system.cpu.itb.flush_tlb                            0                       # Number of times complete TLB was flushed
system.cpu.itb.flush_tlb_asid                       0                       # Number of times TLB was flushed by ASID
system.cpu.itb.flush_tlb_mva                        0                       # Number of times TLB was flushed by MVA
system.cpu.itb.flush_tlb_mva_asid                   0                       # Number of times TLB was flushed by MVA & ASID
system.cpu.itb.hits                                 0                       # DTB hits
system.cpu.itb.inst_accesses                        0                       # ITB inst accesses
system.cpu.itb.inst_hits                            0                       # ITB inst hits
system.cpu.itb.inst_misses                          0                       # ITB inst misses
system.cpu.itb.misses                               0                       # DTB misses
system.cpu.itb.perms_faults                         0                       # Number of TLB faults due to permissions restrictions
system.cpu.itb.prefetch_faults                      0                       # Number of TLB faults due to prefetch
system.cpu.itb.read_accesses                        0                       # DTB read accesses
system.cpu.itb.read_hits                            0                       # DTB read hits
system.cpu.itb.read_misses                          0                       # DTB read misses
system.cpu.itb.stage2_mmu.stage2_tlb.accesses            0                       # DTB accesses
system.cpu.itb.stage2_mmu.stage2_tlb.align_faults            0                       # Number of TLB faults due to alignment restrictions
system.cpu.itb.stage2_mmu.stage2_tlb.domain_faults            0                       # Number of TLB faults due to domain restrictions
system.cpu.itb.stage2_mmu.stage2_tlb.flush_entries            0                       # Number of entries that have been flushed from TLB
system.cpu.itb.stage2_mmu.stage2_tlb.flush_tlb            0                       # Number of times complete TLB was flushed
system.cpu.itb.stage2_mmu.stage2_tlb.flush_tlb_asid            0                       # Number of times TLB was flushed by ASID
system.cpu.itb.stage2_mmu.stage2_tlb.flush_tlb_mva            0                       # Number of times TLB was flushed by MVA
system.cpu.itb.stage2_mmu.stage2_tlb.flush_tlb_mva_asid            0                       # Number of times TLB was flushed by MVA & ASID
system.cpu.itb.stage2_mmu.stage2_tlb.hits            0                       # DTB hits
system.cpu.itb.stage2_mmu.stage2_tlb.inst_accesses            0                       # ITB inst accesses
system.cpu.itb.stage2_mmu.stage2_tlb.inst_hits            0                       # ITB inst hits
system.cpu.itb.stage2_mmu.stage2_tlb.inst_misses            0                       # ITB inst misses
system.cpu.itb.stage2_mmu.stage2_tlb.misses            0                       # DTB misses
system.cpu.itb.stage2_mmu.stage2_tlb.perms_faults            0                       # Number of TLB faults due to permissions restrictions
system.cpu.itb.stage2_mmu.stage2_tlb.prefetch_faults            0                       # Number of TLB faults due to prefetch
system.cpu.itb.stage2_mmu.stage2_tlb.read_accesses            0                       # DTB read accesses
system.cpu.itb.stage2_mmu.stage2_tlb.read_hits            0                       # DTB read hits
system.cpu.itb.stage2_mmu.stage2_tlb.read_misses            0                       # DTB read misses
system.cpu.itb.stage2_mmu.stage2_tlb.walker.walkRequestOrigin_Requested::Data            0                       # Table walker requests started/completed, data/inst
system.cpu.itb.stage2_mmu.stage2_tlb.walker.walkRequestOrigin_Requested::Inst            0                       # Table walker requests started/completed, data/inst
system.cpu.itb.stage2_mmu.stage2_tlb.walker.walkRequestOrigin_Requested::total            0                       # Table walker requests started/completed, data/inst
system.cpu.itb.stage2_mmu.stage2_tlb.walker.walkRequestOrigin_Completed::Data            0                       # Table walker requests started/completed, data/inst
system.cpu.itb.stage2_mmu.stage2_tlb.walker.walkRequestOrigin_Completed::Inst            0                       # Table walker requests started/completed, data/inst
system.cpu.itb.stage2_mmu.stage2_tlb.walker.walkRequestOrigin_Completed::total            0                       # Table walker requests started/completed, data/inst
system.cpu.itb.stage2_mmu.stage2_tlb.walker.walkRequestOrigin::total            0                       # Table walker requests started/completed, data/inst
system.cpu.itb.stage2_mmu.stage2_tlb.walker.walks            0                       # Table walker walks requested
system.cpu.itb.stage2_mmu.stage2_tlb.write_accesses            0                       # DTB write accesses
system.cpu.itb.stage2_mmu.stage2_tlb.write_hits            0                       # DTB write hits
system.cpu.itb.stage2_mmu.stage2_tlb.write_misses            0                       # DTB write misses
system.cpu.itb.walker.walkRequestOrigin_Requested::Data            0                       # Table walker requests started/completed, data/inst
system.cpu.itb.walker.walkRequestOrigin_Requested::Inst            0                       # Table walker requests started/completed, data/inst
system.cpu.itb.walker.walkRequestOrigin_Requested::total            0                       # Table walker requests started/completed, data/inst
system.cpu.itb.walker.walkRequestOrigin_Completed::Data            0                       # Table walker requests started/completed, data/inst
system.cpu.itb.walker.walkRequestOrigin_Completed::Inst            0                       # Table walker requests started/completed, data/inst
system.cpu.itb.walker.walkRequestOrigin_Completed::total            0                       # Table walker requests started/completed, data/inst
system.cpu.itb.walker.walkRequestOrigin::total            0                       # Table walker requests started/completed, data/inst
system.cpu.itb.walker.walks                         0                       # Table walker walks requested
system.cpu.itb.write_accesses                       0                       # DTB write accesses
system.cpu.itb.write_hits                           0                       # DTB write hits
system.cpu.itb.write_misses                         0                       # DTB write misses
system.cpu.memDep0.conflictingLoads               256                       # Number of conflicting loads.
system.cpu.memDep0.conflictingStores               69                       # Number of conflicting stores.
system.cpu.memDep0.insertedLoads              2101055                       # Number of loads inserted to the mem dependence unit.
system.cpu.memDep0.insertedStores             1864288                       # Number of stores inserted to the mem dependence unit.
system.cpu.misc_regfile_reads                 7301956                       # number of misc regfile reads
system.cpu.misc_regfile_writes                    569                       # number of misc regfile writes
system.cpu.numCycles                         16602507                       # number of cpu cycles simulated
system.cpu.numWorkItemsCompleted                    0                       # number of work items this cpu completed
system.cpu.numWorkItemsStarted                      0                       # number of work items this cpu started
system.cpu.rename.BlockCycles                 1618744                       # Number of cycles rename is blocking
system.cpu.rename.CommittedMaps               9092211                       # Number of HB maps that are committed
system.cpu.rename.IQFullEvents                    785                       # Number of times rename has blocked due to IQ full
system.cpu.rename.IdleCycles                 11537343                       # Number of cycles rename is idle
system.cpu.rename.ROBFullEvents                     9                       # Number of times rename has blocked due to ROB full
system.cpu.rename.RenameLookups              21408182                       # Number of register rename lookups that rename has made
system.cpu.rename.RenamedInsts               13389269                       # Number of instructions processed by rename
system.cpu.rename.RenamedOperands            11632307                       # Number of destination operands rename has renamed
system.cpu.rename.RunCycles                   2355764                       # Number of cycles rename is running
system.cpu.rename.SQFullEvents                 201741                       # Number of times rename has blocked due to SQ full
system.cpu.rename.SquashCycles                  43517                       # Number of cycles rename is squashing
system.cpu.rename.UnblockCycles                213873                       # Number of cycles rename is unblocking
system.cpu.rename.UndoneMaps                  2540026                       # Number of HB maps that are undone due to squashing
system.cpu.rename.int_rename_lookups         20823154                       # Number of integer rename lookups
system.cpu.rename.serializeStallCycles          10163                       # count of cycles rename stalled for serializing inst
system.cpu.rename.serializingInsts                309                       # count of serializing insts renamed
system.cpu.rename.skidInsts                     21470                       # count of insts added to the skid buffer
system.cpu.rename.tempSerializingInsts            201                       # count of temporary serializing insts renamed
system.cpu.rename.vec_rename_lookups             1686                       # Number of vector rename lookups
system.cpu.rob.rob_reads                     27558006                       # The number of ROB reads
system.cpu.rob.rob_writes                    26557992                       # The number of ROB writes
system.cpu.timesIdled                           56345                       # Number of times that the entire CPU went into an idle state and unscheduled itself
system.cpu.vec_regfile_reads                     1385                       # number of vector regfile reads
system.cpu.vec_regfile_writes                     602                       # number of vector regfile writes
system.cpu.workload.numSyscalls                    26                       # Number of system calls
system.membus.snoop_filter.hit_multi_requests            0                       # Number of requests hitting in the snoop filter with multiple (>1) holders of the requested data.
system.membus.snoop_filter.hit_multi_snoops            0                       # Number of snoops hitting in the snoop filter with multiple (>1) holders of the requested data.
system.membus.snoop_filter.hit_single_requests       152601                       # Number of requests hitting in the snoop filter with a single holder of the requested data.
system.membus.snoop_filter.hit_single_snoops            0                       # Number of snoops hitting in the snoop filter with a single holder of the requested data.
system.membus.snoop_filter.tot_requests        308065                       # Total number of requests made to the snoop filter.
system.membus.snoop_filter.tot_snoops               0                       # Total number of snoops made to the snoop filter.
system.tol2bus.snoop_filter.hit_multi_requests           22                       # Number of requests hitting in the snoop filter with multiple (>1) holders of the requested data.
system.tol2bus.snoop_filter.hit_multi_snoops            0                       # Number of snoops hitting in the snoop filter with multiple (>1) holders of the requested data.
system.tol2bus.snoop_filter.hit_single_requests       607968                       # Number of requests hitting in the snoop filter with a single holder of the requested data.
system.tol2bus.snoop_filter.hit_single_snoops            2                       # Number of snoops hitting in the snoop filter with a single holder of the requested data.
system.tol2bus.snoop_filter.tot_requests      1216269                       # Total number of requests made to the snoop filter.
system.tol2bus.snoop_filter.tot_snoops              2                       # Total number of snoops made to the snoop filter.
system.membus.trans_dist::ReadResp                749                       # Transaction distribution
system.membus.trans_dist::WritebackDirty       152545                       # Transaction distribution
system.membus.trans_dist::CleanEvict               56                       # Transaction distribution
system.membus.trans_dist::ReadExReq            154708                       # Transaction distribution
system.membus.trans_dist::ReadExResp           154706                       # Transaction distribution
system.membus.trans_dist::ReadSharedReq           749                       # Transaction distribution
system.membus.trans_dist::InvalidateReq             7                       # Transaction distribution
system.membus.pkt_count_system.l2.mem_side::system.mem_ctrls.port       463520                       # Packet count per connected master and slave (bytes)
system.membus.pkt_count::total                 463520                       # Packet count per connected master and slave (bytes)
system.membus.pkt_size_system.l2.mem_side::system.mem_ctrls.port     19712000                       # Cumulative packet size per connected master and slave (bytes)
system.membus.pkt_size::total                19712000                       # Cumulative packet size per connected master and slave (bytes)
system.membus.snoops                                0                       # Total snoops (count)
system.membus.snoopTraffic                          0                       # Total snoop traffic (bytes)
system.membus.snoop_fanout::samples            155464                       # Request fanout histogram
system.membus.snoop_fanout::mean                    0                       # Request fanout histogram
system.membus.snoop_fanout::stdev                   0                       # Request fanout histogram
system.membus.snoop_fanout::underflows              0      0.00%      0.00% # Request fanout histogram
system.membus.snoop_fanout::0                  155464    100.00%    100.00% # Request fanout histogram
system.membus.snoop_fanout::1                       0      0.00%    100.00% # Request fanout histogram
system.membus.snoop_fanout::overflows               0      0.00%    100.00% # Request fanout histogram
system.membus.snoop_fanout::min_value               0                       # Request fanout histogram
system.membus.snoop_fanout::max_value               0                       # Request fanout histogram
system.membus.snoop_fanout::total              155464                       # Request fanout histogram
system.membus.reqLayer0.occupancy           947331001                       # Layer occupancy (ticks)
system.membus.reqLayer0.utilization              11.4                       # Layer utilization (%)
system.membus.respLayer1.occupancy          820363750                       # Layer occupancy (ticks)
system.membus.respLayer1.utilization              9.9                       # Layer utilization (%)
system.membus.power_state.pwrStateResidencyTicks::UNDEFINED   8301253000                       # Cumulative time (in ticks) in various power states
system.tol2bus.trans_dist::ReadResp            453584                       # Transaction distribution
system.tol2bus.trans_dist::WritebackDirty       307075                       # Transaction distribution
system.tol2bus.trans_dist::WritebackClean       453430                       # Transaction distribution
system.tol2bus.trans_dist::CleanEvict              66                       # Transaction distribution
system.tol2bus.trans_dist::ReadExReq           154709                       # Transaction distribution
system.tol2bus.trans_dist::ReadExResp          154707                       # Transaction distribution
system.tol2bus.trans_dist::ReadCleanReq        453447                       # Transaction distribution
system.tol2bus.trans_dist::ReadSharedReq          138                       # Transaction distribution
system.tol2bus.trans_dist::InvalidateReq            7                       # Transaction distribution
system.tol2bus.trans_dist::InvalidateResp            7                       # Transaction distribution
system.tol2bus.pkt_count_system.cpu.icache.mem_side::system.l2.cpu_side      1360323                       # Packet count per connected master and slave (bytes)
system.tol2bus.pkt_count_system.cpu.dcache.mem_side::system.l2.cpu_side       464244                       # Packet count per connected master and slave (bytes)
system.tol2bus.pkt_count::total               1824567                       # Packet count per connected master and slave (bytes)
system.tol2bus.pkt_size_system.cpu.icache.mem_side::system.l2.cpu_side     58040064                       # Cumulative packet size per connected master and slave (bytes)
system.tol2bus.pkt_size_system.cpu.dcache.mem_side::system.l2.cpu_side     19800000                       # Cumulative packet size per connected master and slave (bytes)
system.tol2bus.pkt_size::total               77840064                       # Cumulative packet size per connected master and slave (bytes)
system.tol2bus.snoops                          152603                       # Total snoops (count)
system.tol2bus.snoopTraffic                   9762880                       # Total snoop traffic (bytes)
system.tol2bus.snoop_fanout::samples           760904                       # Request fanout histogram
system.tol2bus.snoop_fanout::mean            0.000032                       # Request fanout histogram
system.tol2bus.snoop_fanout::stdev           0.005616                       # Request fanout histogram
system.tol2bus.snoop_fanout::underflows             0      0.00%      0.00% # Request fanout histogram
system.tol2bus.snoop_fanout::0                 760880    100.00%    100.00% # Request fanout histogram
system.tol2bus.snoop_fanout::1                     24      0.00%    100.00% # Request fanout histogram
system.tol2bus.snoop_fanout::2                      0      0.00%    100.00% # Request fanout histogram
system.tol2bus.snoop_fanout::overflows              0      0.00%    100.00% # Request fanout histogram
system.tol2bus.snoop_fanout::min_value              0                       # Request fanout histogram
system.tol2bus.snoop_fanout::max_value              1                       # Request fanout histogram
system.tol2bus.snoop_fanout::total             760904                       # Request fanout histogram
system.tol2bus.reqLayer0.occupancy         1294750104                       # Layer occupancy (ticks)
system.tol2bus.reqLayer0.utilization             15.6                       # Layer utilization (%)
system.tol2bus.respLayer1.occupancy         236165196                       # Layer occupancy (ticks)
system.tol2bus.respLayer1.utilization             2.8                       # Layer utilization (%)
system.tol2bus.respLayer0.occupancy         680169000                       # Layer occupancy (ticks)
system.tol2bus.respLayer0.utilization             8.2                       # Layer utilization (%)
system.tol2bus.power_state.pwrStateResidencyTicks::UNDEFINED   8301253000                       # Cumulative time (in ticks) in various power states
system.voltage_domain.voltage                       1                       # Voltage in Volts
system.clk_domain.clock                          1000                       # Clock period in ticks
system.l2.demand_hits::.cpu.inst               275209                       # number of demand (read+write) hits
system.l2.demand_hits::.cpu.data                    1                       # number of demand (read+write) hits
system.l2.demand_hits::.cpu.icache.prefetcher       177627                       # number of demand (read+write) hits
system.l2.demand_hits::total                   452837                       # number of demand (read+write) hits
system.l2.overall_hits::.cpu.inst              275209                       # number of overall hits
system.l2.overall_hits::.cpu.data                   1                       # number of overall hits
system.l2.overall_hits::.cpu.icache.prefetcher       177627                       # number of overall hits
system.l2.overall_hits::total                  452837                       # number of overall hits
system.l2.demand_misses::.cpu.inst                610                       # number of demand (read+write) misses
system.l2.demand_misses::.cpu.data             154846                       # number of demand (read+write) misses
system.l2.demand_misses::.cpu.icache.prefetcher            1                       # number of demand (read+write) misses
system.l2.demand_misses::total                 155457                       # number of demand (read+write) misses
system.l2.overall_misses::.cpu.inst               610                       # number of overall misses
system.l2.overall_misses::.cpu.data            154846                       # number of overall misses
system.l2.overall_misses::.cpu.icache.prefetcher            1                       # number of overall misses
system.l2.overall_misses::total                155457                       # number of overall misses
system.l2.demand_miss_latency::.cpu.inst     47861000                       # number of demand (read+write) miss cycles
system.l2.demand_miss_latency::.cpu.data  13879885500                       # number of demand (read+write) miss cycles
system.l2.demand_miss_latency::.cpu.icache.prefetcher        84999                       # number of demand (read+write) miss cycles
system.l2.demand_miss_latency::total      13927831499                       # number of demand (read+write) miss cycles
system.l2.overall_miss_latency::.cpu.inst     47861000                       # number of overall miss cycles
system.l2.overall_miss_latency::.cpu.data  13879885500                       # number of overall miss cycles
system.l2.overall_miss_latency::.cpu.icache.prefetcher        84999                       # number of overall miss cycles
system.l2.overall_miss_latency::total     13927831499                       # number of overall miss cycles
system.l2.demand_accesses::.cpu.inst           275819                       # number of demand (read+write) accesses
system.l2.demand_accesses::.cpu.data           154847                       # number of demand (read+write) accesses
system.l2.demand_accesses::.cpu.icache.prefetcher       177628                       # number of demand (read+write) accesses
system.l2.demand_accesses::total               608294                       # number of demand (read+write) accesses
system.l2.overall_accesses::.cpu.inst          275819                       # number of overall (read+write) accesses
system.l2.overall_accesses::.cpu.data          154847                       # number of overall (read+write) accesses
system.l2.overall_accesses::.cpu.icache.prefetcher       177628                       # number of overall (read+write) accesses
system.l2.overall_accesses::total              608294                       # number of overall (read+write) accesses
system.l2.demand_miss_rate::.cpu.inst        0.002212                       # miss rate for demand accesses
system.l2.demand_miss_rate::.cpu.data        0.999994                       # miss rate for demand accesses
system.l2.demand_miss_rate::.cpu.icache.prefetcher     0.000006                       # miss rate for demand accesses
system.l2.demand_miss_rate::total            0.255562                       # miss rate for demand accesses
system.l2.overall_miss_rate::.cpu.inst       0.002212                       # miss rate for overall accesses
system.l2.overall_miss_rate::.cpu.data       0.999994                       # miss rate for overall accesses
system.l2.overall_miss_rate::.cpu.icache.prefetcher     0.000006                       # miss rate for overall accesses
system.l2.overall_miss_rate::total           0.255562                       # miss rate for overall accesses
system.l2.demand_avg_miss_latency::.cpu.inst 78460.655738                       # average overall miss latency
system.l2.demand_avg_miss_latency::.cpu.data 89636.706793                       # average overall miss latency
system.l2.demand_avg_miss_latency::.cpu.icache.prefetcher        84999                       # average overall miss latency
system.l2.demand_avg_miss_latency::total 89592.823089                       # average overall miss latency
system.l2.overall_avg_miss_latency::.cpu.inst 78460.655738                       # average overall miss latency
system.l2.overall_avg_miss_latency::.cpu.data 89636.706793                       # average overall miss latency
system.l2.overall_avg_miss_latency::.cpu.icache.prefetcher        84999                       # average overall miss latency
system.l2.overall_avg_miss_latency::total 89592.823089                       # average overall miss latency
system.l2.blocked_cycles::no_mshrs                  0                       # number of cycles access was blocked
system.l2.blocked_cycles::no_targets                0                       # number of cycles access was blocked
system.l2.blocked::no_mshrs                         0                       # number of cycles access was blocked
system.l2.blocked::no_targets                       0                       # number of cycles access was blocked
system.l2.avg_blocked_cycles::no_mshrs            nan                       # average number of cycles each access was blocked
system.l2.avg_blocked_cycles::no_targets          nan                       # average number of cycles each access was blocked
system.l2.writebacks::.writebacks              152545                       # number of writebacks
system.l2.writebacks::total                    152545                       # number of writebacks
system.l2.demand_mshr_misses::.cpu.inst           610                       # number of demand (read+write) MSHR misses
system.l2.demand_mshr_misses::.cpu.data        154846                       # number of demand (read+write) MSHR misses
system.l2.demand_mshr_misses::.cpu.icache.prefetcher            1                       # number of demand (read+write) MSHR misses
system.l2.demand_mshr_misses::total            155457                       # number of demand (read+write) MSHR misses
system.l2.overall_mshr_misses::.cpu.inst          610                       # number of overall MSHR misses
system.l2.overall_mshr_misses::.cpu.data       154846                       # number of overall MSHR misses
system.l2.overall_mshr_misses::.cpu.icache.prefetcher            1                       # number of overall MSHR misses
system.l2.overall_mshr_misses::total           155457                       # number of overall MSHR misses
system.l2.demand_mshr_miss_latency::.cpu.inst     41761000                       # number of demand (read+write) MSHR miss cycles
system.l2.demand_mshr_miss_latency::.cpu.data  12331445500                       # number of demand (read+write) MSHR miss cycles
system.l2.demand_mshr_miss_latency::.cpu.icache.prefetcher        74999                       # number of demand (read+write) MSHR miss cycles
system.l2.demand_mshr_miss_latency::total  12373281499                       # number of demand (read+write) MSHR miss cycles
system.l2.overall_mshr_miss_latency::.cpu.inst     41761000                       # number of overall MSHR miss cycles
system.l2.overall_mshr_miss_latency::.cpu.data  12331445500                       # number of overall MSHR miss cycles
system.l2.overall_mshr_miss_latency::.cpu.icache.prefetcher        74999                       # number of overall MSHR miss cycles
system.l2.overall_mshr_miss_latency::total  12373281499                       # number of overall MSHR miss cycles
system.l2.demand_mshr_miss_rate::.cpu.inst     0.002212                       # mshr miss rate for demand accesses
system.l2.demand_mshr_miss_rate::.cpu.data     0.999994                       # mshr miss rate for demand accesses
system.l2.demand_mshr_miss_rate::.cpu.icache.prefetcher     0.000006                       # mshr miss rate for demand accesses
system.l2.demand_mshr_miss_rate::total       0.255562                       # mshr miss rate for demand accesses
system.l2.overall_mshr_miss_rate::.cpu.inst     0.002212                       # mshr miss rate for overall accesses
system.l2.overall_mshr_miss_rate::.cpu.data     0.999994                       # mshr miss rate for overall accesses
system.l2.overall_mshr_miss_rate::.cpu.icache.prefetcher     0.000006                       # mshr miss rate for overall accesses
system.l2.overall_mshr_miss_rate::total      0.255562                       # mshr miss rate for overall accesses
system.l2.demand_avg_mshr_miss_latency::.cpu.inst 68460.655738                       # average overall mshr miss latency
system.l2.demand_avg_mshr_miss_latency::.cpu.data 79636.835953                       # average overall mshr miss latency
system.l2.demand_avg_mshr_miss_latency::.cpu.icache.prefetcher        74999                       # average overall mshr miss latency
system.l2.demand_avg_mshr_miss_latency::total 79592.951742                       # average overall mshr miss latency
system.l2.overall_avg_mshr_miss_latency::.cpu.inst 68460.655738                       # average overall mshr miss latency
system.l2.overall_avg_mshr_miss_latency::.cpu.data 79636.835953                       # average overall mshr miss latency
system.l2.overall_avg_mshr_miss_latency::.cpu.icache.prefetcher        74999                       # average overall mshr miss latency
system.l2.overall_avg_mshr_miss_latency::total 79592.951742                       # average overall mshr miss latency
system.l2.replacements                         152603                       # number of replacements
system.l2.WritebackDirty_hits::.writebacks       154530                       # number of WritebackDirty hits
system.l2.WritebackDirty_hits::total           154530                       # number of WritebackDirty hits
system.l2.WritebackDirty_accesses::.writebacks       154530                       # number of WritebackDirty accesses(hits+misses)
system.l2.WritebackDirty_accesses::total       154530                       # number of WritebackDirty accesses(hits+misses)
system.l2.WritebackClean_hits::.writebacks       453408                       # number of WritebackClean hits
system.l2.WritebackClean_hits::total           453408                       # number of WritebackClean hits
system.l2.WritebackClean_accesses::.writebacks       453408                       # number of WritebackClean accesses(hits+misses)
system.l2.WritebackClean_accesses::total       453408                       # number of WritebackClean accesses(hits+misses)
system.l2.ReadExReq_hits::.cpu.data                 1                       # number of ReadExReq hits
system.l2.ReadExReq_hits::total                     1                       # number of ReadExReq hits
system.l2.ReadExReq_misses::.cpu.data          154708                       # number of ReadExReq misses
system.l2.ReadExReq_misses::total              154708                       # number of ReadExReq misses
system.l2.ReadExReq_miss_latency::.cpu.data  13868080500                       # number of ReadExReq miss cycles
system.l2.ReadExReq_miss_latency::total   13868080500                       # number of ReadExReq miss cycles
system.l2.ReadExReq_accesses::.cpu.data        154709                       # number of ReadExReq accesses(hits+misses)
system.l2.ReadExReq_accesses::total            154709                       # number of ReadExReq accesses(hits+misses)
system.l2.ReadExReq_miss_rate::.cpu.data     0.999994                       # miss rate for ReadExReq accesses
system.l2.ReadExReq_miss_rate::total         0.999994                       # miss rate for ReadExReq accesses
[...]
system.cpu.dcache.overall_misses::total       1314739                       # number of overall misses
system.cpu.dcache.demand_miss_latency::.cpu.data 104555160050                       # number of demand (read+write) miss cycles
system.cpu.dcache.demand_miss_latency::total 104555160050                       # number of demand (read+write) miss cycles
system.cpu.dcache.overall_miss_latency::.cpu.data 104555160050                       # number of overall miss cycles
system.cpu.dcache.overall_miss_latency::total 104555160050                       # number of overall miss cycles
system.cpu.dcache.demand_accesses::.cpu.data      3407010                       # number of demand (read+write) accesses
system.cpu.dcache.demand_accesses::total      3407010                       # number of demand (read+write) accesses
system.cpu.dcache.overall_accesses::.cpu.data      3407065                       # number of overall (read+write) accesses
system.cpu.dcache.overall_accesses::total      3407065                       # number of overall (read+write) accesses
system.cpu.dcache.demand_miss_rate::.cpu.data     0.385892                       # miss rate for demand accesses
system.cpu.dcache.demand_miss_rate::total     0.385892                       # miss rate for demand accesses
system.cpu.dcache.overall_miss_rate::.cpu.data     0.385886                       # miss rate for overall accesses
system.cpu.dcache.overall_miss_rate::total     0.385886                       # miss rate for overall accesses
system.cpu.dcache.demand_avg_miss_latency::.cpu.data 79525.532521                       # average overall miss latency
system.cpu.dcache.demand_avg_miss_latency::total 79525.532521                       # average overall miss latency
system.cpu.dcache.overall_avg_miss_latency::.cpu.data 79525.411546                       # average overall miss latency
system.cpu.dcache.overall_avg_miss_latency::total 79525.411546                       # average overall miss latency
system.cpu.dcache.blocked_cycles::no_mshrs       538550                       # number of cycles access was blocked
system.cpu.dcache.blocked_cycles::no_targets            0                       # number of cycles access was blocked
system.cpu.dcache.blocked::no_mshrs             15971                       # number of cycles access was blocked
system.cpu.dcache.blocked::no_targets               0                       # number of cycles access was blocked
system.cpu.dcache.avg_blocked_cycles::no_mshrs    33.720493                       # average number of cycles each access was blocked
system.cpu.dcache.avg_blocked_cycles::no_targets          nan                       # average number of cycles each access was blocked
system.cpu.dcache.writebacks::.writebacks       154530                       # number of writebacks
system.cpu.dcache.writebacks::total            154530                       # number of writebacks
system.cpu.dcache.demand_mshr_hits::.cpu.data      1159886                       # number of demand (read+write) MSHR hits
system.cpu.dcache.demand_mshr_hits::total      1159886                       # number of demand (read+write) MSHR hits
system.cpu.dcache.overall_mshr_hits::.cpu.data      1159886                       # number of overall MSHR hits
system.cpu.dcache.overall_mshr_hits::total      1159886                       # number of overall MSHR hits
system.cpu.dcache.demand_mshr_misses::.cpu.data       154851                       # number of demand (read+write) MSHR misses
system.cpu.dcache.demand_mshr_misses::total       154851                       # number of demand (read+write) MSHR misses
system.cpu.dcache.overall_mshr_misses::.cpu.data       154853                       # number of overall MSHR misses
system.cpu.dcache.overall_mshr_misses::total       154853                       # number of overall MSHR misses
system.cpu.dcache.demand_mshr_miss_latency::.cpu.data  14122576495                       # number of demand (read+write) MSHR miss cycles
system.cpu.dcache.demand_mshr_miss_latency::total  14122576495                       # number of demand (read+write) MSHR miss cycles
system.cpu.dcache.overall_mshr_miss_latency::.cpu.data  14122739495                       # number of overall MSHR miss cycles
system.cpu.dcache.overall_mshr_miss_latency::total  14122739495                       # number of overall MSHR miss cycles
system.cpu.dcache.demand_mshr_miss_rate::.cpu.data     0.045451                       # mshr miss rate for demand accesses
system.cpu.dcache.demand_mshr_miss_rate::total     0.045451                       # mshr miss rate for demand accesses
system.cpu.dcache.overall_mshr_miss_rate::.cpu.data     0.045451                       # mshr miss rate for overall accesses
system.cpu.dcache.overall_mshr_miss_rate::total     0.045451                       # mshr miss rate for overall accesses
system.cpu.dcache.demand_avg_mshr_miss_latency::.cpu.data 91201.067445                       # average overall mshr miss latency
system.cpu.dcache.demand_avg_mshr_miss_latency::total 91201.067445                       # average overall mshr miss latency
system.cpu.dcache.overall_avg_mshr_miss_latency::.cpu.data 91200.942152                       # average overall mshr miss latency
system.cpu.dcache.overall_avg_mshr_miss_latency::total 91200.942152                       # average overall mshr miss latency
system.cpu.dcache.replacements                 154538                       # number of replacements
system.cpu.dcache.ReadReq_hits::.cpu.data      2086941                       # number of ReadReq hits
system.cpu.dcache.ReadReq_hits::total         2086941                       # number of ReadReq hits
system.cpu.dcache.ReadReq_misses::.cpu.data          284                       # number of ReadReq misses
system.cpu.dcache.ReadReq_misses::total           284                       # number of ReadReq misses
system.cpu.dcache.ReadReq_miss_latency::.cpu.data     24014500                       # number of ReadReq miss cycles
system.cpu.dcache.ReadReq_miss_latency::total     24014500                       # number of ReadReq miss cycles
system.cpu.dcache.ReadReq_accesses::.cpu.data      2087225                       # number of ReadReq accesses(hits+misses)
system.cpu.dcache.ReadReq_accesses::total      2087225                       # number of ReadReq accesses(hits+misses)
system.cpu.dcache.ReadReq_miss_rate::.cpu.data     0.000136                       # miss rate for ReadReq accesses
system.cpu.dcache.ReadReq_miss_rate::total     0.000136                       # miss rate for ReadReq accesses
system.cpu.dcache.ReadReq_avg_miss_latency::.cpu.data 84558.098592                       # average ReadReq miss latency
system.cpu.dcache.ReadReq_avg_miss_latency::total 84558.098592                       # average ReadReq miss latency
system.cpu.dcache.ReadReq_mshr_hits::.cpu.data          149                       # number of ReadReq MSHR hits
system.cpu.dcache.ReadReq_mshr_hits::total          149                       # number of ReadReq MSHR hits
system.cpu.dcache.ReadReq_mshr_misses::.cpu.data          135                       # number of ReadReq MSHR misses
system.cpu.dcache.ReadReq_mshr_misses::total          135                       # number of ReadReq MSHR misses
system.cpu.dcache.ReadReq_mshr_miss_latency::.cpu.data     11783000                       # number of ReadReq MSHR miss cycles
system.cpu.dcache.ReadReq_mshr_miss_latency::total     11783000                       # number of ReadReq MSHR miss cycles
system.cpu.dcache.ReadReq_mshr_miss_rate::.cpu.data     0.000065                       # mshr miss rate for ReadReq accesses
system.cpu.dcache.ReadReq_mshr_miss_rate::total     0.000065                       # mshr miss rate for ReadReq accesses
system.cpu.dcache.ReadReq_avg_mshr_miss_latency::.cpu.data 87281.481481                       # average ReadReq mshr miss latency
system.cpu.dcache.ReadReq_avg_mshr_miss_latency::total 87281.481481                       # average ReadReq mshr miss latency
system.cpu.dcache.WriteReq_hits::.cpu.data         5332                       # number of WriteReq hits
system.cpu.dcache.WriteReq_hits::total           5332                       # number of WriteReq hits
system.cpu.dcache.WriteReq_misses::.cpu.data      1314446                       # number of WriteReq misses
system.cpu.dcache.WriteReq_misses::total      1314446                       # number of WriteReq misses
system.cpu.dcache.WriteReq_miss_latency::.cpu.data 104530920053                       # number of WriteReq miss cycles
system.cpu.dcache.WriteReq_miss_latency::total 104530920053                       # number of WriteReq miss cycles
system.cpu.dcache.WriteReq_accesses::.cpu.data      1319778                       # number of WriteReq accesses(hits+misses)
system.cpu.dcache.WriteReq_accesses::total      1319778                       # number of WriteReq accesses(hits+misses)
system.cpu.dcache.WriteReq_miss_rate::.cpu.data     0.995960                       # miss rate for WriteReq accesses
system.cpu.dcache.WriteReq_miss_rate::total     0.995960                       # miss rate for WriteReq accesses
system.cpu.dcache.WriteReq_avg_miss_latency::.cpu.data 79524.697137                       # average WriteReq miss latency
system.cpu.dcache.WriteReq_avg_miss_latency::total 79524.697137                       # average WriteReq miss latency
system.cpu.dcache.WriteReq_mshr_hits::.cpu.data      1159737                       # number of WriteReq MSHR hits
system.cpu.dcache.WriteReq_mshr_hits::total      1159737                       # number of WriteReq MSHR hits
system.cpu.dcache.WriteReq_mshr_misses::.cpu.data       154709                       # number of WriteReq MSHR misses
system.cpu.dcache.WriteReq_mshr_misses::total       154709                       # number of WriteReq MSHR misses
system.cpu.dcache.WriteReq_mshr_miss_latency::.cpu.data  14110574998                       # number of WriteReq MSHR miss cycles
system.cpu.dcache.WriteReq_mshr_miss_latency::total  14110574998                       # number of WriteReq MSHR miss cycles
system.cpu.dcache.WriteReq_mshr_miss_rate::.cpu.data     0.117224                       # mshr miss rate for WriteReq accesses
system.cpu.dcache.WriteReq_mshr_miss_rate::total     0.117224                       # mshr miss rate for WriteReq accesses
system.cpu.dcache.WriteReq_avg_mshr_miss_latency::.cpu.data 91207.201895                       # average WriteReq mshr miss latency
system.cpu.dcache.WriteReq_avg_mshr_miss_latency::total 91207.201895                       # average WriteReq mshr miss latency
system.cpu.dcache.SoftPFReq_hits::.cpu.data           53                       # number of SoftPFReq hits
system.cpu.dcache.SoftPFReq_hits::total            53                       # number of SoftPFReq hits
system.cpu.dcache.SoftPFReq_misses::.cpu.data            2                       # number of SoftPFReq misses
system.cpu.dcache.SoftPFReq_misses::total            2                       # number of SoftPFReq misses
system.cpu.dcache.SoftPFReq_accesses::.cpu.data           55                       # number of SoftPFReq accesses(hits+misses)
system.cpu.dcache.SoftPFReq_accesses::total           55                       # number of SoftPFReq accesses(hits+misses)
system.cpu.dcache.SoftPFReq_miss_rate::.cpu.data     0.036364                       # miss rate for SoftPFReq accesses
system.cpu.dcache.SoftPFReq_miss_rate::total     0.036364                       # miss rate for SoftPFReq accesses
system.cpu.dcache.SoftPFReq_mshr_misses::.cpu.data            2                       # number of SoftPFReq MSHR misses
system.cpu.dcache.SoftPFReq_mshr_misses::total            2                       # number of SoftPFReq MSHR misses
system.cpu.dcache.SoftPFReq_mshr_miss_latency::.cpu.data       163000                       # number of SoftPFReq MSHR miss cycles
system.cpu.dcache.SoftPFReq_mshr_miss_latency::total       163000                       # number of SoftPFReq MSHR miss cycles
system.cpu.dcache.SoftPFReq_mshr_miss_rate::.cpu.data     0.036364                       # mshr miss rate for SoftPFReq accesses
system.cpu.dcache.SoftPFReq_mshr_miss_rate::total     0.036364                       # mshr miss rate for SoftPFReq accesses
system.cpu.dcache.SoftPFReq_avg_mshr_miss_latency::.cpu.data        81500                       # average SoftPFReq mshr miss latency
system.cpu.dcache.SoftPFReq_avg_mshr_miss_latency::total        81500                       # average SoftPFReq mshr miss latency
system.cpu.dcache.WriteLineReq_misses::.cpu.data            7                       # number of WriteLineReq misses
system.cpu.dcache.WriteLineReq_misses::total            7                       # number of WriteLineReq misses
system.cpu.dcache.WriteLineReq_miss_latency::.cpu.data       225497                       # number of WriteLineReq miss cycles
system.cpu.dcache.WriteLineReq_miss_latency::total       225497                       # number of WriteLineReq miss cycles
system.cpu.dcache.WriteLineReq_accesses::.cpu.data            7                       # number of WriteLineReq accesses(hits+misses)
system.cpu.dcache.WriteLineReq_accesses::total            7                       # number of WriteLineReq accesses(hits+misses)
system.cpu.dcache.WriteLineReq_miss_rate::.cpu.data            1                       # miss rate for WriteLineReq accesses
system.cpu.dcache.WriteLineReq_miss_rate::total            1                       # miss rate for WriteLineReq accesses
system.cpu.dcache.WriteLineReq_avg_miss_latency::.cpu.data 32213.857143                       # average WriteLineReq miss latency
system.cpu.dcache.WriteLineReq_avg_miss_latency::total 32213.857143                       # average WriteLineReq miss latency
system.cpu.dcache.WriteLineReq_mshr_misses::.cpu.data            7                       # number of WriteLineReq MSHR misses
system.cpu.dcache.WriteLineReq_mshr_misses::total            7                       # number of WriteLineReq MSHR misses
system.cpu.dcache.WriteLineReq_mshr_miss_latency::.cpu.data       218497                       # number of WriteLineReq MSHR miss cycles
system.cpu.dcache.WriteLineReq_mshr_miss_latency::total       218497                       # number of WriteLineReq MSHR miss cycles
system.cpu.dcache.WriteLineReq_mshr_miss_rate::.cpu.data            1                       # mshr miss rate for WriteLineReq accesses
system.cpu.dcache.WriteLineReq_mshr_miss_rate::total            1                       # mshr miss rate for WriteLineReq accesses
system.cpu.dcache.WriteLineReq_avg_mshr_miss_latency::.cpu.data 31213.857143                       # average WriteLineReq mshr miss latency
system.cpu.dcache.WriteLineReq_avg_mshr_miss_latency::total 31213.857143                       # average WriteLineReq mshr miss latency
system.cpu.dcache.LoadLockedReq_hits::.cpu.data          167                       # number of LoadLockedReq hits
system.cpu.dcache.LoadLockedReq_hits::total          167                       # number of LoadLockedReq hits
system.cpu.dcache.LoadLockedReq_misses::.cpu.data            1                       # number of LoadLockedReq misses
system.cpu.dcache.LoadLockedReq_misses::total            1                       # number of LoadLockedReq misses
system.cpu.dcache.LoadLockedReq_miss_latency::.cpu.data        74500                       # number of LoadLockedReq miss cycles
system.cpu.dcache.LoadLockedReq_miss_latency::total        74500                       # number of LoadLockedReq miss cycles
system.cpu.dcache.LoadLockedReq_accesses::.cpu.data          168                       # number of LoadLockedReq accesses(hits+misses)
system.cpu.dcache.LoadLockedReq_accesses::total          168                       # number of LoadLockedReq accesses(hits+misses)
system.cpu.dcache.LoadLockedReq_miss_rate::.cpu.data     0.005952                       # miss rate for LoadLockedReq accesses
system.cpu.dcache.LoadLockedReq_miss_rate::total     0.005952                       # miss rate for LoadLockedReq accesses
system.cpu.dcache.LoadLockedReq_avg_miss_latency::.cpu.data        74500                       # average LoadLockedReq miss latency
system.cpu.dcache.LoadLockedReq_avg_miss_latency::total        74500                       # average LoadLockedReq miss latency
system.cpu.dcache.LoadLockedReq_mshr_misses::.cpu.data            1                       # number of LoadLockedReq MSHR misses
system.cpu.dcache.LoadLockedReq_mshr_misses::total            1                       # number of LoadLockedReq MSHR misses
system.cpu.dcache.LoadLockedReq_mshr_miss_latency::.cpu.data        73500                       # number of LoadLockedReq MSHR miss cycles
system.cpu.dcache.LoadLockedReq_mshr_miss_latency::total        73500                       # number of LoadLockedReq MSHR miss cycles
system.cpu.dcache.LoadLockedReq_mshr_miss_rate::.cpu.data     0.005952                       # mshr miss rate for LoadLockedReq accesses
system.cpu.dcache.LoadLockedReq_mshr_miss_rate::total     0.005952                       # mshr miss rate for LoadLockedReq accesses
system.cpu.dcache.LoadLockedReq_avg_mshr_miss_latency::.cpu.data        73500                       # average LoadLockedReq mshr miss latency
system.cpu.dcache.LoadLockedReq_avg_mshr_miss_latency::total        73500                       # average LoadLockedReq mshr miss latency
system.cpu.dcache.StoreCondReq_hits::.cpu.data          142                       # number of StoreCondReq hits
system.cpu.dcache.StoreCondReq_hits::total          142                       # number of StoreCondReq hits
system.cpu.dcache.StoreCondReq_accesses::.cpu.data          142                       # number of StoreCondReq accesses(hits+misses)
system.cpu.dcache.StoreCondReq_accesses::total          142                       # number of StoreCondReq accesses(hits+misses)
system.cpu.dcache.power_state.pwrStateResidencyTicks::UNDEFINED   8301253000                       # Cumulative time (in ticks) in various power states
system.cpu.dcache.tags.tagsinuse           313.014273                       # Cycle average of tags in use
system.cpu.dcache.tags.total_refs             2247487                       # Total number of references to valid blocks.
system.cpu.dcache.tags.sampled_refs            154852                       # Sample count of references to valid blocks.
system.cpu.dcache.tags.avg_refs             14.513774                       # Average number of references to valid blocks.
system.cpu.dcache.tags.warmup_cycle            249500                       # Cycle when the warmup percentage was hit.
system.cpu.dcache.tags.occ_blocks::.cpu.data   313.014273                       # Average occupied blocks per requestor
system.cpu.dcache.tags.occ_percent::.cpu.data     0.305678                       # Average percentage of cache occupancy
system.cpu.dcache.tags.occ_percent::total     0.305678                       # Average percentage of cache occupancy
system.cpu.dcache.tags.occ_task_id_blocks::1024          314                       # Occupied blocks per task id
system.cpu.dcache.tags.age_task_id_blocks_1024::0           64                       # Occupied blocks per task id
system.cpu.dcache.tags.age_task_id_blocks_1024::3          250                       # Occupied blocks per task id
system.cpu.dcache.tags.occ_task_id_percent::1024     0.306641                       # Percentage of cache occupancy per task id
system.cpu.dcache.tags.tag_accesses           6969602                       # Number of tag accesses
system.cpu.dcache.tags.data_accesses          6969602                       # Number of data accesses
system.cpu.dcache.tags.power_state.pwrStateResidencyTicks::UNDEFINED   8301253000                       # Cumulative time (in ticks) in various power states
system.cpu.power_state.pwrStateResidencyTicks::ON   8301253000                       # Cumulative time (in ticks) in various power states

---------- End Simulation Statistics   ----------
