
---------- Begin Simulation Statistics ----------
final_tick                                 7611230500                       # Number of ticks from beginning of simulation (restored from checkpoints and never reset)
host_inst_rate                                  89516                       # Simulator instruction rate (inst/s)
host_mem_usage                                 862804                       # Number of bytes of host memory used
host_op_rate                                    92329                       # Simulator op (including micro ops) rate (op/s)
host_seconds                                   111.71                       # Real time elapsed on the host
host_tick_rate                               68132545                       # Simulator tick rate (ticks/s)
sim_freq                                 1000000000000                       # Frequency of simulated ticks
sim_insts                                    10000000                       # Number of instructions simulated
sim_ops                                      10314289                       # Number of ops (including micro ops) simulated
sim_seconds                                  0.007611                       # Number of seconds simulated
sim_ticks                                  7611230500                       # Number of ticks simulated
system.cpu.branchPred.BTBCorrect                    0                       # Number of correct BTB predictions (this stat may not work properly.
system.cpu.branchPred.BTBHitPct             99.868232                       # BTB Hit Percentage
system.cpu.branchPred.BTBHits                  696520                       # Number of BTB hits
system.cpu.branchPred.BTBLookups               697439                       # Number of BTB lookups
system.cpu.branchPred.RASInCorrect                  2                       # Number of incorrect RAS predictions.
system.cpu.branchPred.condIncorrect              5098                       # Number of conditional branches incorrect
system.cpu.branchPred.condPredicted            368035                       # Number of conditional branches predicted
system.cpu.branchPred.indirectHits                 81                       # Number of indirect target hits.
system.cpu.branchPred.indirectLookups             230                       # Number of indirect predictor lookups.
system.cpu.branchPred.indirectMisses              149                       # Number of indirect misses.
system.cpu.branchPred.lookups                 1354046                       # Number of BP lookups
system.cpu.branchPred.usedRAS                  473788                       # Number of times the RAS was used to get a target.
system.cpu.branchPredindirectMispredicted           94                       # Number of mispredicted indirect branches.
system.cpu.cc_regfile_reads                    614580                       # number of cc regfile reads
system.cpu.cc_regfile_writes                   614385                       # number of cc regfile writes
system.cpu.commit.amos                              0                       # Number of atomic instructions committed
system.cpu.commit.branchMispredicts              4804                       # The number of times a branch was mispredicted
system.cpu.commit.branches                     864158                       # Number of branches committed
system.cpu.commit.bw_lim_events                613751                       # number cycles where commit BW limit reached
system.cpu.commit.commitNonSpecStalls             169                       # The number of times commit has been forced to stall to communicate backwards
system.cpu.commit.commitSquashedInsts         5069865                       # The number of squashed insts skipped by commit
system.cpu.commit.committedInsts             10003896                       # Number of instructions committed
system.cpu.commit.committedOps               10318185                       # Number of ops (including micro ops) committed
system.cpu.commit.committed_per_cycle::samples     14497525                       # Number of insts commited each cycle
system.cpu.commit.committed_per_cycle::mean     0.711720                       # Number of insts commited each cycle
system.cpu.commit.committed_per_cycle::stdev     1.786437                       # Number of insts commited each cycle
system.cpu.commit.committed_per_cycle::underflows            0      0.00%      0.00% # Number of insts commited each cycle
system.cpu.commit.committed_per_cycle::0     10718436     73.93%     73.93% # Number of insts commited each cycle
system.cpu.commit.committed_per_cycle::1      2081431     14.36%     88.29% # Number of insts commited each cycle
system.cpu.commit.committed_per_cycle::2       582336      4.02%     92.31% # Number of insts commited each cycle
system.cpu.commit.committed_per_cycle::3       117440      0.81%     93.12% # Number of insts commited each cycle
system.cpu.commit.committed_per_cycle::4       220258      1.52%     94.64% # Number of insts commited each cycle
system.cpu.commit.committed_per_cycle::5        73902      0.51%     95.15% # Number of insts commited each cycle
system.cpu.commit.committed_per_cycle::6        70585      0.49%     95.63% # Number of insts commited each cycle
system.cpu.commit.committed_per_cycle::7        19386      0.13%     95.77% # Number of insts commited each cycle
system.cpu.commit.committed_per_cycle::8       613751      4.23%    100.00% # Number of insts commited each cycle
system.cpu.commit.committed_per_cycle::overflows            0      0.00%    100.00% # Number of insts commited each cycle
system.cpu.commit.committed_per_cycle::min_value            0                       # Number of insts commited each cycle
system.cpu.commit.committed_per_cycle::max_value            8                       # Number of insts commited each cycle
system.cpu.commit.committed_per_cycle::total     14497525                       # Number of insts commited each cycle
system.cpu.commit.fp_insts                          0                       # Number of committed floating point instructions.
system.cpu.commit.function_calls               309623                       # Number of function calls committed.
system.cpu.commit.int_insts                  10148299                       # Number of committed integer instructions.
system.cpu.commit.loads                       1601695                       # Number of loads committed
system.cpu.commit.membars                         142                       # Number of memory barriers committed
system.cpu.commit.op_class_0::No_OpClass           35      0.00%      0.00% # Class of committed instruction
system.cpu.commit.op_class_0::IntAlu          5154710     49.96%     49.96% # Class of committed instruction
system.cpu.commit.op_class_0::IntMult         1623084     15.73%     65.69% # Class of committed instruction
system.cpu.commit.op_class_0::IntDiv           618291      5.99%     71.68% # Class of committed instruction
system.cpu.commit.op_class_0::FloatAdd              0      0.00%     71.68% # Class of committed instruction
system.cpu.commit.op_class_0::FloatCmp              0      0.00%     71.68% # Class of committed instruction
system.cpu.commit.op_class_0::FloatCvt              0      0.00%     71.68% # Class of committed instruction
system.cpu.commit.op_class_0::FloatMult             0      0.00%     71.68% # Class of committed instruction
system.cpu.commit.op_class_0::FloatMultAcc            0      0.00%     71.68% # Class of committed instruction
system.cpu.commit.op_class_0::FloatDiv              0      0.00%     71.68% # Class of committed instruction
system.cpu.commit.op_class_0::FloatMisc             0      0.00%     71.68% # Class of committed instruction
system.cpu.commit.op_class_0::FloatSqrt             0      0.00%     71.68% # Class of committed instruction
system.cpu.commit.op_class_0::SimdAdd              83      0.00%     71.68% # Class of committed instruction
system.cpu.commit.op_class_0::SimdAddAcc            0      0.00%     71.68% # Class of committed instruction
system.cpu.commit.op_class_0::SimdAlu             138      0.00%     71.68% # Class of committed instruction
system.cpu.commit.op_class_0::SimdCmp             140      0.00%     71.68% # Class of committed instruction
system.cpu.commit.op_class_0::SimdCvt               0      0.00%     71.68% # Class of committed instruction
system.cpu.commit.op_class_0::SimdMisc            103      0.00%     71.68% # Class of committed instruction
system.cpu.commit.op_class_0::SimdMult              0      0.00%     71.68% # Class of committed instruction
system.cpu.commit.op_class_0::SimdMultAcc            0      0.00%     71.68% # Class of committed instruction
system.cpu.commit.op_class_0::SimdShift             0      0.00%     71.68% # Class of committed instruction
system.cpu.commit.op_class_0::SimdShiftAcc            0      0.00%     71.68% # Class of committed instruction
system.cpu.commit.op_class_0::SimdDiv               0      0.00%     71.68% # Class of committed instruction
system.cpu.commit.op_class_0::SimdSqrt              0      0.00%     71.68% # Class of committed instruction
system.cpu.commit.op_class_0::SimdFloatAdd            0      0.00%     71.68% # Class of committed instruction
system.cpu.commit.op_class_0::SimdFloatAlu            0      0.00%     71.68% # Class of committed instruction
system.cpu.commit.op_class_0::SimdFloatCmp            0      0.00%     71.68% # Class of committed instruction
system.cpu.commit.op_class_0::SimdFloatCvt            0      0.00%     71.68% # Class of committed instruction
system.cpu.commit.op_class_0::SimdFloatDiv            0      0.00%     71.68% # Class of committed instruction
system.cpu.commit.op_class_0::SimdFloatMisc            0      0.00%     71.68% # Class of committed instruction
system.cpu.commit.op_class_0::SimdFloatMult            0      0.00%     71.68% # Class of committed instruction
system.cpu.commit.op_class_0::SimdFloatMultAcc            0      0.00%     71.68% # Class of committed instruction
system.cpu.commit.op_class_0::SimdFloatSqrt            0      0.00%     71.68% # Class of committed instruction
system.cpu.commit.op_class_0::SimdReduceAdd            0      0.00%     71.68% # Class of committed instruction
system.cpu.commit.op_class_0::SimdReduceAlu            0      0.00%     71.68% # Class of committed instruction
system.cpu.commit.op_class_0::SimdReduceCmp            0      0.00%     71.68% # Class of committed instruction
system.cpu.commit.op_class_0::SimdFloatReduceAdd            0      0.00%     71.68% # Class of committed instruction
system.cpu.commit.op_class_0::SimdFloatReduceCmp            0      0.00%     71.68% # Class of committed instruction
system.cpu.commit.op_class_0::SimdAes               0      0.00%     71.68% # Class of committed instruction
system.cpu.commit.op_class_0::SimdAesMix            0      0.00%     71.68% # Class of committed instruction
system.cpu.commit.op_class_0::SimdSha1Hash            0      0.00%     71.68% # Class of committed instruction
system.cpu.commit.op_class_0::SimdSha1Hash2            0      0.00%     71.68% # Class of committed instruction
system.cpu.commit.op_class_0::SimdSha256Hash            0      0.00%     71.68% # Class of committed instruction
system.cpu.commit.op_class_0::SimdSha256Hash2            0      0.00%     71.68% # Class of committed instruction
system.cpu.commit.op_class_0::SimdShaSigma2            0      0.00%     71.68% # Class of committed instruction
system.cpu.commit.op_class_0::SimdShaSigma3            0      0.00%     71.68% # Class of committed instruction
system.cpu.commit.op_class_0::SimdPredAlu            0      0.00%     71.68% # Class of committed instruction
system.cpu.commit.op_class_0::MemRead         1601695     15.52%     87.21% # Class of committed instruction
system.cpu.commit.op_class_0::MemWrite        1319906     12.79%    100.00% # Class of committed instruction
system.cpu.commit.op_class_0::FloatMemRead            0      0.00%    100.00% # Class of committed instruction
system.cpu.commit.op_class_0::FloatMemWrite            0      0.00%    100.00% # Class of committed instruction
system.cpu.commit.op_class_0::IprAccess             0      0.00%    100.00% # Class of committed instruction
system.cpu.commit.op_class_0::InstPrefetch            0      0.00%    100.00% # Class of committed instruction
system.cpu.commit.op_class_0::total          10318185                       # Class of committed instruction
system.cpu.commit.refs                        2921601                       # Number of memory references committed
system.cpu.commit.swp_count                         0                       # Number of s/w prefetches committed
system.cpu.commit.vec_insts                      1073                       # Number of committed Vector instructions.
system.cpu.committedInsts                    10000000                       # Number of Instructions Simulated
system.cpu.committedOps                      10314289                       # Number of Ops (including micro ops) Simulated
system.cpu.cpi                               1.522246                       # CPI: Cycles Per Instruction
system.cpu.cpi_total                         1.522246                       # CPI: Total CPI of All Threads
system.cpu.decode.BlockedCycles               9305566                       # Number of cycles decode is blocked
system.cpu.decode.BranchMispred                   296                       # Number of times decode detected a branch misprediction
system.cpu.decode.BranchResolved               696195                       # Number of times decode resolved a branch
system.cpu.decode.DecodedInsts               17256139                       # Number of instructions handled by decode
system.cpu.decode.IdleCycles                  3017303                       # Number of cycles decode is idle
system.cpu.decode.RunCycles                   2521564                       # Number of cycles decode is running
system.cpu.decode.SquashCycles                  43516                       # Number of cycles decode is squashing
system.cpu.decode.SquashedInsts                  1007                       # Number of squashed instructions handled by decode
system.cpu.decode.UnblockCycles                263660                       # Number of cycles decode is unblocking
system.cpu.dtb.accesses                             0                       # DTB accesses
system.cpu.dtb.align_faults                         0                       # Number of TLB faults due to alignment restrictions
system.cpu.dtb.domain_faults                        0                       # Number of TLB faults due to domain restrictions
system.cpu.dtb.flush_entries                        0                       # Number of entries that have been flushed from TLB
system.cpu.dtb.flush_tlb                            0                       # Number of times complete TLB was flushed
system.cpu.dtb.flush_tlb_asid                       0                       # Number of times TLB was flushed by ASID
system.cpu.dtb.flush_tlb_mva                        0                       # Number of times TLB was flushed by MVA
system.cpu.dtb.flush_tlb_mva_asid                   0                       # Number of times TLB was flushed by MVA & ASID
system.cpu.dtb.hits                                 0                       # DTB hits
system.cpu.dtb.inst_accesses                        0                       # ITB inst accesses
system.cpu.dtb.inst_hits                            0                       # ITB inst hits
system.cpu.dtb.inst_misses                          0                       # ITB inst misses
system.cpu.dtb.misses                               0                       # DTB misses
system.cpu.dtb.perms_faults                         0                       # Number of TLB faults due to permissions restrictions
system.cpu.dtb.prefetch_faults                      0                       # Number of TLB faults due to prefetch
system.cpu.dtb.read_accesses                        0                       # DTB read accesses
system.cpu.dtb.read_hits                            0                       # DTB read hits
system.cpu.dtb.read_misses                          0                       # DTB read misses
system.cpu.dtb.stage2_mmu.stage2_tlb.accesses            0                       # DTB accesses
system.cpu.dtb.stage2_mmu.stage2_tlb.align_faults            0                       # Number of TLB faults due to alignment restrictions
system.cpu.dtb.stage2_mmu.stage2_tlb.domain_faults            0                       # Number of TLB faults due to domain restrictions
system.cpu.dtb.stage2_mmu.stage2_tlb.flush_entries            0                       # Number of entries that have been flushed from TLB
system.cpu.dtb.stage2_mmu.stage2_tlb.flush_tlb            0                       # Number of times complete TLB was flushed
system.cpu.dtb.stage2_mmu.stage2_tlb.flush_tlb_asid            0                       # Number of times TLB was flushed by ASID
system.cpu.dtb.stage2_mmu.stage2_tlb.flush_tlb_mva            0                       # Number of times TLB was flushed by MVA
system.cpu.dtb.stage2_mmu.stage2_tlb.flush_tlb_mva_asid            0                       # Number of times TLB was flushed by MVA & ASID
system.cpu.dtb.stage2_mmu.stage2_tlb.hits            0                       # DTB hits
system.cpu.dtb.stage2_mmu.stage2_tlb.inst_accesses            0                       # ITB inst accesses
system.cpu.dtb.stage2_mmu.stage2_tlb.inst_hits            0                       # ITB inst hits
system.cpu.dtb.stage2_mmu.stage2_tlb.inst_misses            0                       # ITB inst misses
system.cpu.dtb.stage2_mmu.stage2_tlb.misses            0                       # DTB misses
system.cpu.dtb.stage2_mmu.stage2_tlb.perms_faults            0                       # Number of TLB faults due to permissions restrictions
system.cpu.dtb.stage2_mmu.stage2_tlb.prefetch_faults            0                       # Number of TLB faults due to prefetch
system.cpu.dtb.stage2_mmu.stage2_tlb.read_accesses            0                       # DTB read accesses
system.cpu.dtb.stage2_mmu.stage2_tlb.read_hits            0                       # DTB read hits
system.cpu.dtb.stage2_mmu.stage2_tlb.read_misses            0                       # DTB read misses
system.cpu.dtb.stage2_mmu.stage2_tlb.walker.walkRequestOrigin_Requested::Data            0                       # Table walker requests started/completed, data/inst
system.cpu.dtb.stage2_mmu.stage2_tlb.walker.walkRequestOrigin_Requested::Inst            0                       # Table walker requests started/completed, data/inst
system.cpu.dtb.stage2_mmu.stage2_tlb.walker.walkRequestOrigin_Requested::total            0                       # Table walker requests started/completed, data/inst
system.cpu.dtb.stage2_mmu.stage2_tlb.walker.walkRequestOrigin_Completed::Data            0                       # Table walker requests started/completed, data/inst
system.cpu.dtb.stage2_mmu.stage2_tlb.walker.walkRequestOrigin_Completed::Inst            0                       # Table walker requests started/completed, data/inst
system.cpu.dtb.stage2_mmu.stage2_tlb.walker.walkRequestOrigin_Completed::total            0                       # Table walker requests started/completed, data/inst
system.cpu.dtb.stage2_mmu.stage2_tlb.walker.walkRequestOrigin::total            0                       # Table walker requests started/completed, data/inst
system.cpu.dtb.stage2_mmu.stage2_tlb.walker.walks            0                       # Table walker walks requested
system.cpu.dtb.stage2_mmu.stage2_tlb.write_accesses            0                       # DTB write accesses
system.cpu.dtb.stage2_mmu.stage2_tlb.write_hits            0                       # DTB write hits
system.cpu.dtb.stage2_mmu.stage2_tlb.write_misses            0                       # DTB write misses
system.cpu.dtb.walker.walkRequestOrigin_Requested::Data            0                       # Table walker requests started/completed, data/inst
system.cpu.dtb.walker.walkRequestOrigin_Requested::Inst            0                       # Table walker requests started/completed, data/inst
system.cpu.dtb.walker.walkRequestOrigin_Requested::total            0                       # Table walker requests started/completed, data/inst
system.cpu.dtb.walker.walkRequestOrigin_Completed::Data            0                       # Table walker requests started/completed, data/inst
system.cpu.dtb.walker.walkRequestOrigin_Completed::Inst            0                       # Table walker requests started/completed, data/inst
system.cpu.dtb.walker.walkRequestOrigin_Completed::total            0                       # Table walker requests started/completed, data/inst
system.cpu.dtb.walker.walkRequestOrigin::total            0                       # Table walker requests started/completed, data/inst
system.cpu.dtb.walker.walks                         0                       # Table walker walks requested
system.cpu.dtb.write_accesses                       0                       # DTB write accesses
system.cpu.dtb.write_hits                           0                       # DTB write hits
system.cpu.dtb.write_misses                         0                       # DTB write misses
system.cpu.fetch.Branches                     1354046                       # Number of branches that fetch encountered
system.cpu.fetch.CacheLines                   2083263                       # Number of cache lines fetched
system.cpu.fetch.Cycles                       6117490                       # Number of cycles fetch has run and was not squashing or blocked
system.cpu.fetch.IcacheSquashes                 41231                       # Number of outstanding Icache misses that were squashed
system.cpu.fetch.IcacheWaitRetryStallCycles           33                       # Number of stall cycles due to full MSHR
system.cpu.fetch.Insts                       17321490                       # Number of instructions fetch has processed
system.cpu.fetch.MiscStallCycles                    3                       # Number of cycles fetch has spent waiting on interrupts, or bad addresses, or out of MSHRs
system.cpu.fetch.SquashCycles                   87620                       # Number of cycles fetch has spent squashing
system.cpu.fetch.branchRate                  0.088951                       # Number of branch fetches per cycle
system.cpu.fetch.icacheStallCycles            8990273                       # Number of cycles fetch is stalled on an Icache miss
system.cpu.fetch.predictedBranches            1170389                       # Number of branches that fetch has predicted taken
system.cpu.fetch.rate                        1.137890                       # Number of inst fetches per cycle
system.cpu.fetch.rateDist::samples           15151609                       # Number of instructions fetched each cycle (Total)
system.cpu.fetch.rateDist::mean              1.179401                       # Number of instructions fetched each cycle (Total)
system.cpu.fetch.rateDist::stdev             2.556500                       # Number of instructions fetched each cycle (Total)
system.cpu.fetch.rateDist::underflows               0      0.00%      0.00% # Number of instructions fetched each cycle (Total)
system.cpu.fetch.rateDist::0                 11884650     78.44%     78.44% # Number of instructions fetched each cycle (Total)
system.cpu.fetch.rateDist::1                   248624      1.64%     80.08% # Number of instructions fetched each cycle (Total)
system.cpu.fetch.rateDist::2                   539167      3.56%     83.64% # Number of instructions fetched each cycle (Total)
system.cpu.fetch.rateDist::3                   195454      1.29%     84.93% # Number of instructions fetched each cycle (Total)
system.cpu.fetch.rateDist::4                   146730      0.97%     85.90% # Number of instructions fetched each cycle (Total)
system.cpu.fetch.rateDist::5                   360616      2.38%     88.28% # Number of instructions fetched each cycle (Total)
system.cpu.fetch.rateDist::6                   276749      1.83%     90.10% # Number of instructions fetched each cycle (Total)
system.cpu.fetch.rateDist::7                    90942      0.60%     90.70% # Number of instructions fetched each cycle (Total)
system.cpu.fetch.rateDist::8                  1408677      9.30%    100.00% # Number of instructions fetched each cycle (Total)
system.cpu.fetch.rateDist::overflows                0      0.00%    100.00% # Number of instructions fetched each cycle (Total)
system.cpu.fetch.rateDist::min_value                0                       # Number of instructions fetched each cycle (Total)
system.cpu.fetch.rateDist::max_value                8                       # Number of instructions fetched each cycle (Total)
system.cpu.fetch.rateDist::total             15151609                       # Number of instructions fetched each cycle (Total)
system.cpu.idleCycles                           70853                       # Total number of cycles that the CPU has spent unscheduled due to idling
system.cpu.iew.branchMispredicts                 4886                       # Number of branch mispredicts detected at execute
system.cpu.iew.exec_branches                  1297960                       # Number of branches executed
system.cpu.iew.exec_nop                          3930                       # number of nop insts executed
system.cpu.iew.exec_rate                     0.992191                       # Inst execution rate
system.cpu.iew.exec_refs                      4703985                       # number of memory reference insts executed
system.cpu.iew.exec_stores                    1972302                       # Number of stores executed
system.cpu.iew.exec_swp                             0                       # number of swp insts executed
system.cpu.iew.iewBlockCycles                 2079217                       # Number of cycles IEW is blocking
system.cpu.iew.iewDispLoadInsts               2739796                       # Number of dispatched load instructions
system.cpu.iew.iewDispNonSpecInsts                198                       # Number of dispatched non-speculative instructions
system.cpu.iew.iewDispSquashedInsts              2139                       # Number of squashed instructions skipped by dispatch
system.cpu.iew.iewDispStoreInsts              2213594                       # Number of dispatched store instructions
system.cpu.iew.iewDispatchedInsts            16855477                       # Number of instructions dispatched to IQ
system.cpu.iew.iewExecLoadInsts               2731683                       # Number of load instructions executed
system.cpu.iew.iewExecSquashedInsts             88283                       # Number of squashed instructions skipped in execute
system.cpu.iew.iewExecutedInsts              15103587                       # Number of executed instructions
system.cpu.iew.iewIQFullEvents                  96928                       # Number of times the IQ has become full, causing a stall
system.cpu.iew.iewIdleCycles                        0                       # Number of cycles IEW is idle
system.cpu.iew.iewLSQFullEvents                  8613                       # Number of times the LSQ has become full, causing a stall
system.cpu.iew.iewSquashCycles                  43516                       # Number of cycles IEW is squashing
system.cpu.iew.iewUnblockCycles                157858                       # Number of cycles IEW is unblocking
system.cpu.iew.lsq.thread0.blockedLoads             0                       # Number of blocked loads due to partial load-store forwarding
system.cpu.iew.lsq.thread0.cacheBlocked         27396                       # Number of times an access to memory failed due to the cache being blocked
system.cpu.iew.lsq.thread0.forwLoads              283                       # Number of loads that had data forwarded from stores
system.cpu.iew.lsq.thread0.ignoredResponses           11                       # Number of memory responses ignored because the instruction is squashed
system.cpu.iew.lsq.thread0.invAddrLoads             0                       # Number of loads ignored due to an invalid address
system.cpu.iew.lsq.thread0.invAddrSwpfs             0                       # Number of software prefetches ignored due to an invalid address
system.cpu.iew.lsq.thread0.memOrderViolation           31                       # Number of memory ordering violations
system.cpu.iew.lsq.thread0.rescheduledLoads           91                       # Number of loads that were rescheduled
system.cpu.iew.lsq.thread0.squashedLoads      1138081                       # Number of loads squashed
system.cpu.iew.lsq.thread0.squashedStores       893669                       # Number of stores squashed
system.cpu.iew.memOrderViolationEvents             31                       # Number of memory order violations
system.cpu.iew.predictedNotTakenIncorrect          725                       # Number of branches that were predicted not taken incorrectly
system.cpu.iew.predictedTakenIncorrect           4161                       # Number of branches that were predicted taken incorrectly
system.cpu.iew.wb_consumers                  16149250                       # num instructions consuming a value
system.cpu.iew.wb_count                      14434312                       # cumulative count of insts written-back
system.cpu.iew.wb_fanout                     0.645736                       # average fanout of values written-back
system.cpu.iew.wb_producers                  10428155                       # num instructions producing a value
system.cpu.iew.wb_rate                       0.948225                       # insts written-back per cycle
system.cpu.iew.wb_sent                       15084452                       # cumulative count of insts sent to commit
system.cpu.int_regfile_reads                 22560525                       # number of integer regfile reads
system.cpu.int_regfile_writes                12552023                       # number of integer regfile writes
system.cpu.ipc                               0.656924                       # IPC: Instructions Per Cycle
system.cpu.ipc_total                         0.656924                       # IPC: Total IPC of All Threads
system.cpu.iq.FU_type_0::No_OpClass                35      0.00%      0.00% # Type of FU issued
system.cpu.iq.FU_type_0::IntAlu               7741390     50.96%     50.96% # Type of FU issued
system.cpu.iq.FU_type_0::IntMult              2043416     13.45%     64.41% # Type of FU issued
system.cpu.iq.FU_type_0::IntDiv                698756      4.60%     69.01% # Type of FU issued
system.cpu.iq.FU_type_0::FloatAdd                   0      0.00%     69.01% # Type of FU issued
system.cpu.iq.FU_type_0::FloatCmp                   0      0.00%     69.01% # Type of FU issued
system.cpu.iq.FU_type_0::FloatCvt                   0      0.00%     69.01% # Type of FU issued
system.cpu.iq.FU_type_0::FloatMult                  0      0.00%     69.01% # Type of FU issued
system.cpu.iq.FU_type_0::FloatMultAcc               0      0.00%     69.01% # Type of FU issued
system.cpu.iq.FU_type_0::FloatDiv                   0      0.00%     69.01% # Type of FU issued
system.cpu.iq.FU_type_0::FloatMisc                  0      0.00%     69.01% # Type of FU issued
system.cpu.iq.FU_type_0::FloatSqrt                  0      0.00%     69.01% # Type of FU issued
system.cpu.iq.FU_type_0::SimdAdd                   85      0.00%     69.01% # Type of FU issued
system.cpu.iq.FU_type_0::SimdAddAcc                 0      0.00%     69.01% # Type of FU issued
system.cpu.iq.FU_type_0::SimdAlu                  140      0.00%     69.01% # Type of FU issued
system.cpu.iq.FU_type_0::SimdCmp                  140      0.00%     69.01% # Type of FU issued
system.cpu.iq.FU_type_0::SimdCvt                    0      0.00%     69.01% # Type of FU issued
system.cpu.iq.FU_type_0::SimdMisc                 105      0.00%     69.01% # Type of FU issued
system.cpu.iq.FU_type_0::SimdMult                   0      0.00%     69.01% # Type of FU issued
system.cpu.iq.FU_type_0::SimdMultAcc                0      0.00%     69.01% # Type of FU issued
system.cpu.iq.FU_type_0::SimdShift                  0      0.00%     69.01% # Type of FU issued
system.cpu.iq.FU_type_0::SimdShiftAcc               0      0.00%     69.01% # Type of FU issued
system.cpu.iq.FU_type_0::SimdDiv                    0      0.00%     69.01% # Type of FU issued
system.cpu.iq.FU_type_0::SimdSqrt                   0      0.00%     69.01% # Type of FU issued
system.cpu.iq.FU_type_0::SimdFloatAdd               0      0.00%     69.01% # Type of FU issued
system.cpu.iq.FU_type_0::SimdFloatAlu               0      0.00%     69.01% # Type of FU issued
system.cpu.iq.FU_type_0::SimdFloatCmp               0      0.00%     69.01% # Type of FU issued
system.cpu.iq.FU_type_0::SimdFloatCvt               0      0.00%     69.01% # Type of FU issued
system.cpu.iq.FU_type_0::SimdFloatDiv               0      0.00%     69.01% # Type of FU issued
system.cpu.iq.FU_type_0::SimdFloatMisc              0      0.00%     69.01% # Type of FU issued
system.cpu.iq.FU_type_0::SimdFloatMult              0      0.00%     69.01% # Type of FU issued
system.cpu.iq.FU_type_0::SimdFloatMultAcc            0      0.00%     69.01% # Type of FU issued
system.cpu.iq.FU_type_0::SimdFloatSqrt              0      0.00%     69.01% # Type of FU issued
system.cpu.iq.FU_type_0::SimdReduceAdd              0      0.00%     69.01% # Type of FU issued
system.cpu.iq.FU_type_0::SimdReduceAlu              0      0.00%     69.01% # Type of FU issued
system.cpu.iq.FU_type_0::SimdReduceCmp              0      0.00%     69.01% # Type of FU issued
system.cpu.iq.FU_type_0::SimdFloatReduceAdd            0      0.00%     69.01% # Type of FU issued
system.cpu.iq.FU_type_0::SimdFloatReduceCmp            0      0.00%     69.01% # Type of FU issued
system.cpu.iq.FU_type_0::SimdAes                    0      0.00%     69.01% # Type of FU issued
system.cpu.iq.FU_type_0::SimdAesMix                 0      0.00%     69.01% # Type of FU issued
system.cpu.iq.FU_type_0::SimdSha1Hash               0      0.00%     69.01% # Type of FU issued
system.cpu.iq.FU_type_0::SimdSha1Hash2              0      0.00%     69.01% # Type of FU issued
system.cpu.iq.FU_type_0::SimdSha256Hash             0      0.00%     69.01% # Type of FU issued
system.cpu.iq.FU_type_0::SimdSha256Hash2            0      0.00%     69.01% # Type of FU issued
system.cpu.iq.FU_type_0::SimdShaSigma2              0      0.00%     69.01% # Type of FU issued
system.cpu.iq.FU_type_0::SimdShaSigma3              0      0.00%     69.01% # Type of FU issued
system.cpu.iq.FU_type_0::SimdPredAlu                0      0.00%     69.01% # Type of FU issued
system.cpu.iq.FU_type_0::MemRead              2735397     18.01%     87.02% # Type of FU issued
system.cpu.iq.FU_type_0::MemWrite             1972410     12.98%    100.00% # Type of FU issued
system.cpu.iq.FU_type_0::FloatMemRead               0      0.00%    100.00% # Type of FU issued
system.cpu.iq.FU_type_0::FloatMemWrite              0      0.00%    100.00% # Type of FU issued
system.cpu.iq.FU_type_0::IprAccess                  0      0.00%    100.00% # Type of FU issued
system.cpu.iq.FU_type_0::InstPrefetch               0      0.00%    100.00% # Type of FU issued
system.cpu.iq.FU_type_0::total               15191874                       # Type of FU issued
system.cpu.iq.fp_alu_accesses                       0                       # Number of floating point alu accesses
system.cpu.iq.fp_inst_queue_reads                   0                       # Number of floating instruction queue reads
system.cpu.iq.fp_inst_queue_wakeup_accesses            0                       # Number of floating instruction queue wakeup accesses
system.cpu.iq.fp_inst_queue_writes                  0                       # Number of floating instruction queue writes
system.cpu.iq.fu_busy_cnt                    10966802                       # FU busy when requested
system.cpu.iq.fu_busy_rate                   0.721886                       # FU busy rate (busy events/executed inst)
system.cpu.iq.fu_full::No_OpClass                   0      0.00%      0.00% # attempts to use FU when none available
system.cpu.iq.fu_full::IntAlu                   64440      0.59%      0.59% # attempts to use FU when none available
system.cpu.iq.fu_full::IntMult                5779112     52.70%     53.28% # attempts to use FU when none available
system.cpu.iq.fu_full::IntDiv                 4930963     44.96%     98.25% # attempts to use FU when none available
system.cpu.iq.fu_full::FloatAdd                     0      0.00%     98.25% # attempts to use FU when none available
system.cpu.iq.fu_full::FloatCmp                     0      0.00%     98.25% # attempts to use FU when none available
system.cpu.iq.fu_full::FloatCvt                     0      0.00%     98.25% # attempts to use FU when none available
system.cpu.iq.fu_full::FloatMult                    0      0.00%     98.25% # attempts to use FU when none available
system.cpu.iq.fu_full::FloatMultAcc                 0      0.00%     98.25% # attempts to use FU when none available
system.cpu.iq.fu_full::FloatDiv                     0      0.00%     98.25% # attempts to use FU when none available
system.cpu.iq.fu_full::FloatMisc                    0      0.00%     98.25% # attempts to use FU when none available
system.cpu.iq.fu_full::FloatSqrt                    0      0.00%     98.25% # attempts to use FU when none available
system.cpu.iq.fu_full::SimdAdd                      0      0.00%     98.25% # attempts to use FU when none available
system.cpu.iq.fu_full::SimdAddAcc                   0      0.00%     98.25% # attempts to use FU when none available
system.cpu.iq.fu_full::SimdAlu                      1      0.00%     98.25% # attempts to use FU when none available
system.cpu.iq.fu_full::SimdCmp                      2      0.00%     98.25% # attempts to use FU when none available
system.cpu.iq.fu_full::SimdCvt                      0      0.00%     98.25% # attempts to use FU when none available
system.cpu.iq.fu_full::SimdMisc                     0      0.00%     98.25% # attempts to use FU when none available
system.cpu.iq.fu_full::SimdMult                     0      0.00%     98.25% # attempts to use FU when none available
system.cpu.iq.fu_full::SimdMultAcc                  0      0.00%     98.25% # attempts to use FU when none available
system.cpu.iq.fu_full::SimdShift                    0      0.00%     98.25% # attempts to use FU when none available
system.cpu.iq.fu_full::SimdShiftAcc                 0      0.00%     98.25% # attempts to use FU when none available
system.cpu.iq.fu_full::SimdDiv                      0      0.00%     98.25% # attempts to use FU when none available
system.cpu.iq.fu_full::SimdSqrt                     0      0.00%     98.25% # attempts to use FU when none available
system.cpu.iq.fu_full::SimdFloatAdd                 0      0.00%     98.25% # attempts to use FU when none available
system.cpu.iq.fu_full::SimdFloatAlu                 0      0.00%     98.25% # attempts to use FU when none available
system.cpu.iq.fu_full::SimdFloatCmp                 0      0.00%     98.25% # attempts to use FU when none available
system.cpu.iq.fu_full::SimdFloatCvt                 0      0.00%     98.25% # attempts to use FU when none available
system.cpu.iq.fu_full::SimdFloatDiv                 0      0.00%     98.25% # attempts to use FU when none available
system.cpu.iq.fu_full::SimdFloatMisc                0      0.00%     98.25% # attempts to use FU when none available
system.cpu.iq.fu_full::SimdFloatMult                0      0.00%     98.25% # attempts to use FU when none available
system.cpu.iq.fu_full::SimdFloatMultAcc             0      0.00%     98.25% # attempts to use FU when none available
system.cpu.iq.fu_full::SimdFloatSqrt                0      0.00%     98.25% # attempts to use FU when none available
system.cpu.iq.fu_full::SimdReduceAdd                0      0.00%     98.25% # attempts to use FU when none available
system.cpu.iq.fu_full::SimdReduceAlu                0      0.00%     98.25% # attempts to use FU when none available
system.cpu.iq.fu_full::SimdReduceCmp                0      0.00%     98.25% # attempts to use FU when none available
system.cpu.iq.fu_full::SimdFloatReduceAdd            0      0.00%     98.25% # attempts to use FU when none available
system.cpu.iq.fu_full::SimdFloatReduceCmp            0      0.00%     98.25% # attempts to use FU when none available
system.cpu.iq.fu_full::SimdAes                      0      0.00%     98.25% # attempts to use FU when none available
system.cpu.iq.fu_full::SimdAesMix                   0      0.00%     98.25% # attempts to use FU when none available
system.cpu.iq.fu_full::SimdSha1Hash                 0      0.00%     98.25% # attempts to use FU when none available
system.cpu.iq.fu_full::SimdSha1Hash2                0      0.00%     98.25% # attempts to use FU when none available
system.cpu.iq.fu_full::SimdSha256Hash               0      0.00%     98.25% # attempts to use FU when none available
system.cpu.iq.fu_full::SimdSha256Hash2              0      0.00%     98.25% # attempts to use FU when none available
system.cpu.iq.fu_full::SimdShaSigma2                0      0.00%     98.25% # attempts to use FU when none available
system.cpu.iq.fu_full::SimdShaSigma3                0      0.00%     98.25% # attempts to use FU when none available
system.cpu.iq.fu_full::SimdPredAlu                  0      0.00%     98.25% # attempts to use FU when none available
system.cpu.iq.fu_full::MemRead                 114739      1.05%     99.29% # attempts to use FU when none available
system.cpu.iq.fu_full::MemWrite                 77545      0.71%    100.00% # attempts to use FU when none available
system.cpu.iq.fu_full::FloatMemRead                 0      0.00%    100.00% # attempts to use FU when none available
system.cpu.iq.fu_full::FloatMemWrite                0      0.00%    100.00% # attempts to use FU when none available
system.cpu.iq.fu_full::IprAccess                    0      0.00%    100.00% # attempts to use FU when none available
system.cpu.iq.fu_full::InstPrefetch                 0      0.00%    100.00% # attempts to use FU when none available
system.cpu.iq.int_alu_accesses               26157373                       # Number of integer alu accesses
system.cpu.iq.int_inst_queue_reads           56768330                       # Number of integer instruction queue reads
system.cpu.iq.int_inst_queue_wakeup_accesses     14433205                       # Number of integer instruction queue wakeup accesses
system.cpu.iq.int_inst_queue_writes          23387112                       # Number of integer instruction queue writes
system.cpu.iq.iqInstsAdded                   16851349                       # Number of instructions added to the IQ (excludes non-spec)
system.cpu.iq.iqInstsIssued                  15191874                       # Number of instructions issued
system.cpu.iq.iqNonSpecInstsAdded                 198                       # Number of non-speculative instructions added to the IQ
system.cpu.iq.iqSquashedInstsExamined         6537123                       # Number of squashed instructions iterated over during squash; mainly for profiling
system.cpu.iq.iqSquashedInstsIssued            268637                       # Number of squashed instructions issued
system.cpu.iq.iqSquashedNonSpecRemoved             29                       # Number of squashed non-spec instructions that were removed
system.cpu.iq.iqSquashedOperandsExamined      4930539                       # Number of squashed operands that are examined and possibly removed from graph
system.cpu.iq.issued_per_cycle::samples      15151609                       # Number of insts issued each cycle
system.cpu.iq.issued_per_cycle::mean         1.002657                       # Number of insts issued each cycle
system.cpu.iq.issued_per_cycle::stdev        1.601032                       # Number of insts issued each cycle
system.cpu.iq.issued_per_cycle::underflows            0      0.00%      0.00% # Number of insts issued each cycle
system.cpu.iq.issued_per_cycle::0             8919633     58.87%     58.87% # Number of insts issued each cycle
system.cpu.iq.issued_per_cycle::1             2296429     15.16%     74.03% # Number of insts issued each cycle
system.cpu.iq.issued_per_cycle::2             1815953     11.99%     86.01% # Number of insts issued each cycle
system.cpu.iq.issued_per_cycle::3              740959      4.89%     90.90% # Number of insts issued each cycle
system.cpu.iq.issued_per_cycle::4              556313      3.67%     94.57% # Number of insts issued each cycle
system.cpu.iq.issued_per_cycle::5              417685      2.76%     97.33% # Number of insts issued each cycle
system.cpu.iq.issued_per_cycle::6              126662      0.84%     98.17% # Number of insts issued each cycle
system.cpu.iq.issued_per_cycle::7              256787      1.69%     99.86% # Number of insts issued each cycle
system.cpu.iq.issued_per_cycle::8               21188      0.14%    100.00% # Number of insts issued each cycle
system.cpu.iq.issued_per_cycle::overflows            0      0.00%    100.00% # Number of insts issued each cycle
system.cpu.iq.issued_per_cycle::min_value            0                       # Number of insts issued each cycle
system.cpu.iq.issued_per_cycle::max_value            8                       # Number of insts issued each cycle
system.cpu.iq.issued_per_cycle::total        15151609                       # Number of insts issued each cycle
system.cpu.iq.rate                           0.997991                       # Inst issue rate
system.cpu.iq.vec_alu_accesses                   1268                       # Number of vector alu accesses
system.cpu.iq.vec_inst_queue_reads               2462                       # Number of vector instruction queue reads
system.cpu.iq.vec_inst_queue_wakeup_accesses         1107                       # Number of vector instruction queue wakeup accesses
system.cpu.iq.vec_inst_queue_writes              1587                       # Number of vector instruction queue writes
system.cpu.itb.accesses                             0                       # DTB accesses
system.cpu.itb.align_faults                         0                       # Number of TLB faults due to alignment restrictions
system.cpu.itb.domain_faults                        0                       # Number of TLB faults due to domain restrictions
system.cpu.itb.flush_entries                        0                       # Number of entries that have been flushed from TLB
system.cpu.itb.flush_tlb                            0                       # Number of times complete TLB was flushed
system.cpu.itb.flush_tlb_asid                       0                       # Number of times TLB was flushed by ASID
system.cpu.itb.flush_tlb_mva                        0                       # Number of times TLB was flushed by MVA
system.cpu.itb.flush_tlb_mva_asid                   0                       # Number of times TLB was flushed by MVA & ASID
system.cpu.itb.hits                                 0                       # DTB hits
system.cpu.itb.inst_accesses                        0                       # ITB inst accesses
system.cpu.itb.inst_hits                            0                       # ITB inst hits
system.cpu.itb.inst_misses                          0                       # ITB inst misses
system.cpu.itb.misses                               0                       # DTB misses
system.cpu.itb.perms_faults                         0                       # Number of TLB faults due to permissions restrictions
system.cpu.itb.prefetch_faults                      0                       # Number of TLB faults due to prefetch
system.cpu.itb.read_accesses                        0                       # DTB read accesses
system.cpu.itb.read_hits                            0                       # DTB read hits
system.cpu.itb.read_misses                          0                       # DTB read misses
system.cpu.itb.stage2_mmu.stage2_tlb.accesses            0                       # DTB accesses
system.cpu.itb.stage2_mmu.stage2_tlb.align_faults            0                       # Number of TLB faults due to alignment restrictions
system.cpu.itb.stage2_mmu.stage2_tlb.domain_faults            0                       # Number of TLB faults due to domain restrictions
system.cpu.itb.stage2_mmu.stage2_tlb.flush_entries            0                       # Number of entries that have been flushed from TLB
system.cpu.itb.stage2_mmu.stage2_tlb.flush_tlb            0                       # Number of times complete TLB was flushed
system.cpu.itb.stage2_mmu.stage2_tlb.flush_tlb_asid            0                       # Number of times TLB was flushed by ASID
system.cpu.itb.stage2_mmu.stage2_tlb.flush_tlb_mva            0                       # Number of times TLB was flushed by MVA
system.cpu.itb.stage2_mmu.stage2_tlb.flush_tlb_mva_asid            0                       # Number of times TLB was flushed by MVA & ASID
system.cpu.itb.stage2_mmu.stage2_tlb.hits            0                       # DTB hits
system.cpu.itb.stage2_mmu.stage2_tlb.inst_accesses            0                       # ITB inst accesses
system.cpu.itb.stage2_mmu.stage2_tlb.inst_hits            0                       # ITB inst hits
system.cpu.itb.stage2_mmu.stage2_tlb.inst_misses            0                       # ITB inst misses
system.cpu.itb.stage2_mmu.stage2_tlb.misses            0                       # DTB misses
system.cpu.itb.stage2_mmu.stage2_tlb.perms_faults            0                       # Number of TLB faults due to permissions restrictions
system.cpu.itb.stage2_mmu.stage2_tlb.prefetch_faults            0                       # Number of TLB faults due to prefetch
system.cpu.itb.stage2_mmu.stage2_tlb.read_accesses            0                       # DTB read accesses
system.cpu.itb.stage2_mmu.stage2_tlb.read_hits            0                       # DTB read hits
system.cpu.itb.stage2_mmu.stage2_tlb.read_misses            0                       # DTB read misses
system.cpu.itb.stage2_mmu.stage2_tlb.walker.walkRequestOrigin_Requested::Data            0                       # Table walker requests started/completed, data/inst
system.cpu.itb.stage2_mmu.stage2_tlb.walker.walkRequestOrigin_Requested::Inst            0                       # Table walker requests started/completed, data/inst
system.cpu.itb.stage2_mmu.stage2_tlb.walker.walkRequestOrigin_Requested::total            0                       # Table walker requests started/completed, data/inst
system.cpu.itb.stage2_mmu.stage2_tlb.walker.walkRequestOrigin_Completed::Data            0                       # Table walker requests started/completed, data/inst
system.cpu.itb.stage2_mmu.stage2_tlb.walker.walkRequestOrigin_Completed::Inst            0                       # Table walker requests started/completed, data/inst
system.cpu.itb.stage2_mmu.stage2_tlb.walker.walkRequestOrigin_Completed::total            0                       # Table walker requests started/completed, data/inst
system.cpu.itb.stage2_mmu.stage2_tlb.walker.walkRequestOrigin::total            0                       # Table walker requests started/completed, data/inst
system.cpu.itb.stage2_mmu.stage2_tlb.walker.walks            0                       # Table walker walks requested
system.cpu.itb.stage2_mmu.stage2_tlb.write_accesses            0                       # DTB write accesses
system.cpu.itb.stage2_mmu.stage2_tlb.write_hits            0                       # DTB write hits
system.cpu.itb.stage2_mmu.stage2_tlb.write_misses            0                       # DTB write misses
system.cpu.itb.walker.walkRequestOrigin_Requested::Data            0                       # Table walker requests started/completed, data/inst
system.cpu.itb.walker.walkRequestOrigin_Requested::Inst            0                       # Table walker requests started/completed, data/inst
system.cpu.itb.walker.walkRequestOrigin_Requested::total            0                       # Table walker requests started/completed, data/inst
system.cpu.itb.walker.walkRequestOrigin_Completed::Data            0                       # Table walker requests started/completed, data/inst
system.cpu.itb.walker.walkRequestOrigin_Completed::Inst            0                       # Table walker requests started/completed, data/inst
system.cpu.itb.walker.walkRequestOrigin_Completed::total            0                       # Table walker requests started/completed, data/inst
system.cpu.itb.walker.walkRequestOrigin::total            0                       # Table walker requests started/completed, data/inst
system.cpu.itb.walker.walks                         0                       # Table walker walks requested
system.cpu.itb.write_accesses                       0                       # DTB write accesses
system.cpu.itb.write_hits                           0                       # DTB write hits
system.cpu.itb.write_misses                         0                       # DTB write misses
system.cpu.memDep0.conflictingLoads               235                       # Number of conflicting loads.
system.cpu.memDep0.conflictingStores               69                       # Number of conflicting stores.
system.cpu.memDep0.insertedLoads              2739796                       # Number of loads inserted to the mem dependence unit.
system.cpu.memDep0.insertedStores             2213594                       # Number of stores inserted to the mem dependence unit.
system.cpu.misc_regfile_reads                 9102315                       # number of misc regfile reads
system.cpu.misc_regfile_writes                    569                       # number of misc regfile writes
system.cpu.numCycles                         15222462                       # number of cpu cycles simulated
system.cpu.numWorkItemsCompleted                    0                       # number of work items this cpu completed
system.cpu.numWorkItemsStarted                      0                       # number of work items this cpu started
system.cpu.rename.BlockCycles                 2449371                       # Number of cycles rename is blocking
system.cpu.rename.CommittedMaps               9092211                       # Number of HB maps that are committed
system.cpu.rename.IQFullEvents                 653479                       # Number of times rename has blocked due to IQ full
system.cpu.rename.IdleCycles                  3109023                       # Number of cycles rename is idle
system.cpu.rename.ROBFullEvents                     9                       # Number of times rename has blocked due to ROB full
system.cpu.rename.RenameLookups              27203397                       # Number of register rename lookups that rename has made
system.cpu.rename.RenamedInsts               17086563                       # Number of instructions processed by rename
system.cpu.rename.RenamedOperands            14943452                       # Number of destination operands rename has renamed
system.cpu.rename.RunCycles                   2657778                       # Number of cycles rename is running
system.cpu.rename.SQFullEvents                6319092                       # Number of times rename has blocked due to SQ full
system.cpu.rename.SquashCycles                  43516                       # Number of cycles rename is squashing
system.cpu.rename.UnblockCycles               6881558                       # Number of cycles rename is unblocking
system.cpu.rename.UndoneMaps                  5851123                       # Number of HB maps that are undone due to squashing
system.cpu.rename.int_rename_lookups         26458586                       # Number of integer rename lookups
system.cpu.rename.serializeStallCycles          10363                       # count of cycles rename stalled for serializing inst
system.cpu.rename.serializingInsts                299                       # count of serializing insts renamed
system.cpu.rename.skidInsts                   1382031                       # count of insts added to the skid buffer
system.cpu.rename.tempSerializingInsts            198                       # count of temporary serializing insts renamed
system.cpu.rename.vec_rename_lookups             1686                       # Number of vector rename lookups
system.cpu.rob.rob_reads                     28768841                       # The number of ROB reads
system.cpu.rob.rob_writes                    31430330                       # The number of ROB writes
system.cpu.timesIdled                            5538                       # Number of times that the entire CPU went into an idle state and unscheduled itself
system.cpu.vec_regfile_reads                     1340                       # number of vector regfile reads
system.cpu.vec_regfile_writes                     575                       # number of vector regfile writes
system.cpu.workload.numSyscalls                    26                       # Number of system calls
system.membus.snoop_filter.hit_multi_requests            0                       # Number of requests hitting in the snoop filter with multiple (>1) holders of the requested data.
system.membus.snoop_filter.hit_multi_snoops            0                       # Number of snoops hitting in the snoop filter with multiple (>1) holders of the requested data.
system.membus.snoop_filter.hit_single_requests       152589                       # Number of requests hitting in the snoop filter with a single holder of the requested data.
system.membus.snoop_filter.hit_single_snoops            0                       # Number of snoops hitting in the snoop filter with a single holder of the requested data.
system.membus.snoop_filter.tot_requests        308039                       # Total number of requests made to the snoop filter.
system.membus.snoop_filter.tot_snoops               0                       # Total number of snoops made to the snoop filter.
system.tol2bus.snoop_filter.hit_multi_requests            1                       # Number of requests hitting in the snoop filter with multiple (>1) holders of the requested data.
system.tol2bus.snoop_filter.hit_multi_snoops            0                       # Number of snoops hitting in the snoop filter with multiple (>1) holders of the requested data.
system.tol2bus.snoop_filter.hit_single_requests       389709                       # Number of requests hitting in the snoop filter with a single holder of the requested data.
system.tol2bus.snoop_filter.hit_single_snoops            2                       # Number of snoops hitting in the snoop filter with a single holder of the requested data.
system.tol2bus.snoop_filter.tot_requests       779751                       # Total number of requests made to the snoop filter.
system.tol2bus.snoop_filter.tot_snoops              2                       # Total number of snoops made to the snoop filter.
system.membus.trans_dist::ReadResp                735                       # Transaction distribution
system.membus.trans_dist::WritebackDirty       152545                       # Transaction distribution
system.membus.trans_dist::CleanEvict               44                       # Transaction distribution
system.membus.trans_dist::ReadExReq            154708                       # Transaction distribution
system.membus.trans_dist::ReadExResp           154706                       # Transaction distribution
system.membus.trans_dist::ReadSharedReq           735                       # Transaction distribution
system.membus.trans_dist::InvalidateReq             7                       # Transaction distribution
system.membus.pkt_count_system.l2.mem_side::system.mem_ctrls.port       463480                       # Packet count per connected master and slave (bytes)
system.membus.pkt_count::total                 463480                       # Packet count per connected master and slave (bytes)
system.membus.pkt_size_system.l2.mem_side::system.mem_ctrls.port     19711104                       # Cumulative packet size per connected master and slave (bytes)
system.membus.pkt_size::total                19711104                       # Cumulative packet size per connected master and slave (bytes)
system.membus.snoops                                0                       # Total snoops (count)
system.membus.snoopTraffic                          0                       # Total snoop traffic (bytes)
system.membus.snoop_fanout::samples            155450                       # Request fanout histogram
system.membus.snoop_fanout::mean                    0                       # Request fanout histogram
system.membus.snoop_fanout::stdev                   0                       # Request fanout histogram
system.membus.snoop_fanout::underflows              0      0.00%      0.00% # Request fanout histogram
system.membus.snoop_fanout::0                  155450    100.00%    100.00% # Request fanout histogram
system.membus.snoop_fanout::1                       0      0.00%    100.00% # Request fanout histogram
system.membus.snoop_fanout::overflows               0      0.00%    100.00% # Request fanout histogram
system.membus.snoop_fanout::min_value               0                       # Request fanout histogram
system.membus.snoop_fanout::max_value               0                       # Request fanout histogram
system.membus.snoop_fanout::total              155450                       # Request fanout histogram
system.membus.reqLayer0.occupancy           934955000                       # Layer occupancy (ticks)
system.membus.reqLayer0.utilization              12.3                       # Layer utilization (%)
system.membus.respLayer1.occupancy          812336750                       # Layer occupancy (ticks)
system.membus.respLayer1.utilization             10.7                       # Layer utilization (%)
system.membus.power_state.pwrStateResidencyTicks::UNDEFINED   7611230500                       # Cumulative time (in ticks) in various power states
system.tol2bus.trans_dist::ReadResp            235325                       # Transaction distribution
system.tol2bus.trans_dist::WritebackDirty       307075                       # Transaction distribution
system.tol2bus.trans_dist::WritebackClean       235171                       # Transaction distribution
system.tol2bus.trans_dist::CleanEvict              54                       # Transaction distribution
system.tol2bus.trans_dist::ReadExReq           154709                       # Transaction distribution
system.tol2bus.trans_dist::ReadExResp          154707                       # Transaction distribution
system.tol2bus.trans_dist::ReadCleanReq        235188                       # Transaction distribution
system.tol2bus.trans_dist::ReadSharedReq          138                       # Transaction distribution
system.tol2bus.trans_dist::InvalidateReq            7                       # Transaction distribution
system.tol2bus.trans_dist::InvalidateResp            7                       # Transaction distribution
system.tol2bus.pkt_count_system.cpu.icache.mem_side::system.l2.cpu_side       705546                       # Packet count per connected master and slave (bytes)
system.tol2bus.pkt_count_system.cpu.dcache.mem_side::system.l2.cpu_side       464244                       # Packet count per connected master and slave (bytes)
system.tol2bus.pkt_count::total               1169790                       # Packet count per connected master and slave (bytes)
system.tol2bus.pkt_size_system.cpu.icache.mem_side::system.l2.cpu_side     30102912                       # Cumulative packet size per connected master and slave (bytes)
system.tol2bus.pkt_size_system.cpu.dcache.mem_side::system.l2.cpu_side     19800000                       # Cumulative packet size per connected master and slave (bytes)
system.tol2bus.pkt_size::total               49902912                       # Cumulative packet size per connected master and slave (bytes)
system.tol2bus.snoops                          152591                       # Total snoops (count)
system.tol2bus.snoopTraffic                   9762880                       # Total snoop traffic (bytes)
system.tol2bus.snoop_fanout::samples           542633                       # Request fanout histogram
system.tol2bus.snoop_fanout::mean            0.000006                       # Request fanout histogram
system.tol2bus.snoop_fanout::stdev           0.002351                       # Request fanout histogram
system.tol2bus.snoop_fanout::underflows             0      0.00%      0.00% # Request fanout histogram
system.tol2bus.snoop_fanout::0                 542630    100.00%    100.00% # Request fanout histogram
system.tol2bus.snoop_fanout::1                      3      0.00%    100.00% # Request fanout histogram
system.tol2bus.snoop_fanout::2                      0      0.00%    100.00% # Request fanout histogram
system.tol2bus.snoop_fanout::overflows              0      0.00%    100.00% # Request fanout histogram
system.tol2bus.snoop_fanout::min_value              0                       # Request fanout histogram
system.tol2bus.snoop_fanout::max_value              1                       # Request fanout histogram
system.tol2bus.snoop_fanout::total             542633                       # Request fanout histogram
system.tol2bus.reqLayer0.occupancy          779576500                       # Layer occupancy (ticks)
system.tol2bus.reqLayer0.utilization             10.2                       # Layer utilization (%)
system.tol2bus.respLayer1.occupancy         232314413                       # Layer occupancy (ticks)
system.tol2bus.respLayer1.utilization             3.1                       # Layer utilization (%)
system.tol2bus.respLayer0.occupancy         352780500                       # Layer occupancy (ticks)
system.tol2bus.respLayer0.utilization             4.6                       # Layer utilization (%)
system.tol2bus.power_state.pwrStateResidencyTicks::UNDEFINED   7611230500                       # Cumulative time (in ticks) in various power states
system.voltage_domain.voltage                       1                       # Voltage in Volts
system.clk_domain.clock                          1000                       # Clock period in ticks
system.l2.demand_hits::.cpu.inst               234591                       # number of demand (read+write) hits
system.l2.demand_hits::.cpu.data                    1                       # number of demand (read+write) hits
system.l2.demand_hits::total                   234592                       # number of demand (read+write) hits
system.l2.overall_hits::.cpu.inst              234591                       # number of overall hits
system.l2.overall_hits::.cpu.data                   1                       # number of overall hits
system.l2.overall_hits::total                  234592                       # number of overall hits
system.l2.demand_misses::.cpu.inst                597                       # number of demand (read+write) misses
system.l2.demand_misses::.cpu.data             154846                       # number of demand (read+write) misses
system.l2.demand_misses::total                 155443                       # number of demand (read+write) misses
system.l2.overall_misses::.cpu.inst               597                       # number of overall misses
system.l2.overall_misses::.cpu.data            154846                       # number of overall misses
system.l2.overall_misses::total                155443                       # number of overall misses
system.l2.demand_miss_latency::.cpu.inst     47109000                       # number of demand (read+write) miss cycles
system.l2.demand_miss_latency::.cpu.data  13642043500                       # number of demand (read+write) miss cycles
system.l2.demand_miss_latency::total      13689152500                       # number of demand (read+write) miss cycles
system.l2.overall_miss_latency::.cpu.inst     47109000                       # number of overall miss cycles
system.l2.overall_miss_latency::.cpu.data  13642043500                       # number of overall miss cycles
system.l2.overall_miss_latency::total     13689152500                       # number of overall miss cycles
system.l2.demand_accesses::.cpu.inst           235188                       # number of demand (read+write) accesses
system.l2.demand_accesses::.cpu.data           154847                       # number of demand (read+write) accesses
system.l2.demand_accesses::total               390035                       # number of demand (read+write) accesses
system.l2.overall_accesses::.cpu.inst          235188                       # number of overall (read+write) accesses
system.l2.overall_accesses::.cpu.data          154847                       # number of overall (read+write) accesses
system.l2.overall_accesses::total              390035                       # number of overall (read+write) accesses
system.l2.demand_miss_rate::.cpu.inst        0.002538                       # miss rate for demand accesses
system.l2.demand_miss_rate::.cpu.data        0.999994                       # miss rate for demand accesses
system.l2.demand_miss_rate::total            0.398536                       # miss rate for demand accesses
system.l2.overall_miss_rate::.cpu.inst       0.002538                       # miss rate for overall accesses
system.l2.overall_miss_rate::.cpu.data       0.999994                       # miss rate for overall accesses
system.l2.overall_miss_rate::total           0.398536                       # miss rate for overall accesses
system.l2.demand_avg_miss_latency::.cpu.inst 78909.547739                       # average overall miss latency
system.l2.demand_avg_miss_latency::.cpu.data 88100.716195                       # average overall miss latency
system.l2.demand_avg_miss_latency::total 88065.416262                       # average overall miss latency
system.l2.overall_avg_miss_latency::.cpu.inst 78909.547739                       # average overall miss latency
system.l2.overall_avg_miss_latency::.cpu.data 88100.716195                       # average overall miss latency
system.l2.overall_avg_miss_latency::total 88065.416262                       # average overall miss latency
system.l2.blocked_cycles::no_mshrs                  0                       # number of cycles access was blocked
system.l2.blocked_cycles::no_targets                0                       # number of cycles access was blocked
system.l2.blocked::no_mshrs                         0                       # number of cycles access was blocked
system.l2.blocked::no_targets                       0                       # number of cycles access was blocked
system.l2.avg_blocked_cycles::no_mshrs            nan                       # average number of cycles each access was blocked
system.l2.avg_blocked_cycles::no_targets          nan                       # average number of cycles each access was blocked
system.l2.writebacks::.writebacks              152545                       # number of writebacks
system.l2.writebacks::total                    152545                       # number of writebacks
system.l2.demand_mshr_misses::.cpu.inst           597                       # number of demand (read+write) MSHR misses
system.l2.demand_mshr_misses::.cpu.data        154846                       # number of demand (read+write) MSHR misses
system.l2.demand_mshr_misses::total            155443                       # number of demand (read+write) MSHR misses
system.l2.overall_mshr_misses::.cpu.inst          597                       # number of overall MSHR misses
system.l2.overall_mshr_misses::.cpu.data       154846                       # number of overall MSHR misses
system.l2.overall_mshr_misses::total           155443                       # number of overall MSHR misses
system.l2.demand_mshr_miss_latency::.cpu.inst     41139000                       # number of demand (read+write) MSHR miss cycles
system.l2.demand_mshr_miss_latency::.cpu.data  12093603500                       # number of demand (read+write) MSHR miss cycles
system.l2.demand_mshr_miss_latency::total  12134742500                       # number of demand (read+write) MSHR miss cycles
system.l2.overall_mshr_miss_latency::.cpu.inst     41139000                       # number of overall MSHR miss cycles
system.l2.overall_mshr_miss_latency::.cpu.data  12093603500                       # number of overall MSHR miss cycles
system.l2.overall_mshr_miss_latency::total  12134742500                       # number of overall MSHR miss cycles
system.l2.demand_mshr_miss_rate::.cpu.inst     0.002538                       # mshr miss rate for demand accesses
system.l2.demand_mshr_miss_rate::.cpu.data     0.999994                       # mshr miss rate for demand accesses
system.l2.demand_mshr_miss_rate::total       0.398536                       # mshr miss rate for demand accesses
system.l2.overall_mshr_miss_rate::.cpu.inst     0.002538                       # mshr miss rate for overall accesses
system.l2.overall_mshr_miss_rate::.cpu.data     0.999994                       # mshr miss rate for overall accesses
system.l2.overall_mshr_miss_rate::total      0.398536                       # mshr miss rate for overall accesses
system.l2.demand_avg_mshr_miss_latency::.cpu.inst 68909.547739                       # average overall mshr miss latency
system.l2.demand_avg_mshr_miss_latency::.cpu.data 78100.845356                       # average overall mshr miss latency
system.l2.demand_avg_mshr_miss_latency::total 78065.544926                       # average overall mshr miss latency
system.l2.overall_avg_mshr_miss_latency::.cpu.inst 68909.547739                       # average overall mshr miss latency
system.l2.overall_avg_mshr_miss_latency::.cpu.data 78100.845356                       # average overall mshr miss latency
system.l2.overall_avg_mshr_miss_latency::total 78065.544926                       # average overall mshr miss latency
system.l2.replacements                         152591                       # number of replacements
system.l2.WritebackDirty_hits::.writebacks       154530                       # number of WritebackDirty hits
system.l2.WritebackDirty_hits::total           154530                       # number of WritebackDirty hits
system.l2.WritebackDirty_accesses::.writebacks       154530                       # number of WritebackDirty accesses(hits+misses)
system.l2.WritebackDirty_accesses::total       154530                       # number of WritebackDirty accesses(hits+misses)
system.l2.WritebackClean_hits::.writebacks       235170                       # number of WritebackClean hits
system.l2.WritebackClean_hits::total           235170                       # number of WritebackClean hits
system.l2.WritebackClean_accesses::.writebacks       235170                       # number of WritebackClean accesses(hits+misses)
system.l2.WritebackClean_accesses::total       235170                       # number of WritebackClean accesses(hits+misses)
system.l2.ReadExReq_hits::.cpu.data                 1                       # number of ReadExReq hits
system.l2.ReadExReq_hits::total                     1                       # number of ReadExReq hits
system.l2.ReadExReq_misses::.cpu.data          154708                       # number of ReadExReq misses
system.l2.ReadExReq_misses::total              154708                       # number of ReadExReq misses
system.l2.ReadExReq_miss_latency::.cpu.data  13630474500                       # number of ReadExReq miss cycles
system.l2.ReadExReq_miss_latency::total   13630474500                       # number of ReadExReq miss cycles
system.l2.ReadExReq_accesses::.cpu.data        154709                       # number of ReadExReq accesses(hits+misses)
system.l2.ReadExReq_accesses::total            154709                       # number of ReadExReq accesses(hits+misses)
system.l2.ReadExReq_miss_rate::.cpu.data     0.999994                       # miss rate for ReadExReq accesses
system.l2.ReadExReq_miss_rate::total         0.999994                       # miss rate for ReadExReq accesses
system.l2.ReadExReq_avg_miss_latency::.cpu.data 88104.522714                       # average ReadExReq miss latency
system.l2.ReadExReq_avg_miss_latency::total 88104.522714                       # average ReadExReq miss latency
system.l2.ReadExReq_mshr_misses::.cpu.data       154708                       # number of ReadExReq MSHR misses
system.l2.ReadExReq_mshr_misses::total         154708                       # number of ReadExReq MSHR misses
system.l2.ReadExReq_mshr_miss_latency::.cpu.data  12083414500                       # number of ReadExReq MSHR miss cycles
system.l2.ReadExReq_mshr_miss_latency::total  12083414500                       # number of ReadExReq MSHR miss cycles
system.l2.ReadExReq_mshr_miss_rate::.cpu.data     0.999994                       # mshr miss rate for ReadExReq accesses
system.l2.ReadExReq_mshr_miss_rate::total     0.999994                       # mshr miss rate for ReadExReq accesses
system.l2.ReadExReq_avg_mshr_miss_latency::.cpu.data 78104.651990                       # average ReadExReq mshr miss latency
system.l2.ReadExReq_avg_mshr_miss_latency::total 78104.651990                       # average ReadExReq mshr miss latency
system.l2.ReadCleanReq_hits::.cpu.inst         234591                       # number of ReadCleanReq hits
system.l2.ReadCleanReq_hits::total             234591                       # number of ReadCleanReq hits
system.l2.ReadCleanReq_misses::.cpu.inst          597                       # number of ReadCleanReq misses
system.l2.ReadCleanReq_misses::total              597                       # number of ReadCleanReq misses
system.l2.ReadCleanReq_miss_latency::.cpu.inst     47109000                       # number of ReadCleanReq miss cycles
system.l2.ReadCleanReq_miss_latency::total     47109000                       # number of ReadCleanReq miss cycles
system.l2.ReadCleanReq_accesses::.cpu.inst       235188                       # number of ReadCleanReq accesses(hits+misses)
system.l2.ReadCleanReq_accesses::total         235188                       # number of ReadCleanReq accesses(hits+misses)
system.l2.ReadCleanReq_miss_rate::.cpu.inst     0.002538                       # miss rate for ReadCleanReq accesses
system.l2.ReadCleanReq_miss_rate::total      0.002538                       # miss rate for ReadCleanReq accesses
system.l2.ReadCleanReq_avg_miss_latency::.cpu.inst 78909.547739                       # average ReadCleanReq miss latency
system.l2.ReadCleanReq_avg_miss_latency::total 78909.547739                       # average ReadCleanReq miss latency
system.l2.ReadCleanReq_mshr_misses::.cpu.inst          597                       # number of ReadCleanReq MSHR misses
system.l2.ReadCleanReq_mshr_misses::total          597                       # number of ReadCleanReq MSHR misses
system.l2.ReadCleanReq_mshr_miss_latency::.cpu.inst     41139000                       # number of ReadCleanReq MSHR miss cycles
system.l2.ReadCleanReq_mshr_miss_latency::total     41139000                       # number of ReadCleanReq MSHR miss cycles
system.l2.ReadCleanReq_mshr_miss_rate::.cpu.inst     0.002538                       # mshr miss rate for ReadCleanReq accesses
system.l2.ReadCleanReq_mshr_miss_rate::total     0.002538                       # mshr miss rate for ReadCleanReq accesses
[...]
system.cpu.dcache.overall_misses::total       1314739                       # number of overall misses
system.cpu.dcache.demand_miss_latency::.cpu.data 103304707615                       # number of demand (read+write) miss cycles
system.cpu.dcache.demand_miss_latency::total 103304707615                       # number of demand (read+write) miss cycles
system.cpu.dcache.overall_miss_latency::.cpu.data 103304707615                       # number of overall miss cycles
system.cpu.dcache.overall_miss_latency::total 103304707615                       # number of overall miss cycles
system.cpu.dcache.demand_accesses::.cpu.data      4050814                       # number of demand (read+write) accesses
system.cpu.dcache.demand_accesses::total      4050814                       # number of demand (read+write) accesses
system.cpu.dcache.overall_accesses::.cpu.data      4050869                       # number of overall (read+write) accesses
system.cpu.dcache.overall_accesses::total      4050869                       # number of overall (read+write) accesses
system.cpu.dcache.demand_miss_rate::.cpu.data     0.324561                       # miss rate for demand accesses
system.cpu.dcache.demand_miss_rate::total     0.324561                       # miss rate for demand accesses
system.cpu.dcache.overall_miss_rate::.cpu.data     0.324557                       # miss rate for overall accesses
system.cpu.dcache.overall_miss_rate::total     0.324557                       # miss rate for overall accesses
system.cpu.dcache.demand_avg_miss_latency::.cpu.data 78574.427901                       # average overall miss latency
system.cpu.dcache.demand_avg_miss_latency::total 78574.427901                       # average overall miss latency
system.cpu.dcache.overall_avg_miss_latency::.cpu.data 78574.308372                       # average overall miss latency
system.cpu.dcache.overall_avg_miss_latency::total 78574.308372                       # average overall miss latency
system.cpu.dcache.blocked_cycles::no_mshrs      1117063                       # number of cycles access was blocked
system.cpu.dcache.blocked_cycles::no_targets            0                       # number of cycles access was blocked
system.cpu.dcache.blocked::no_mshrs             27407                       # number of cycles access was blocked
system.cpu.dcache.blocked::no_targets               0                       # number of cycles access was blocked
system.cpu.dcache.avg_blocked_cycles::no_mshrs    40.758310                       # average number of cycles each access was blocked
system.cpu.dcache.avg_blocked_cycles::no_targets          nan                       # average number of cycles each access was blocked
system.cpu.dcache.writebacks::.writebacks       154530                       # number of writebacks
system.cpu.dcache.writebacks::total            154530                       # number of writebacks
system.cpu.dcache.demand_mshr_hits::.cpu.data      1159886                       # number of demand (read+write) MSHR hits
system.cpu.dcache.demand_mshr_hits::total      1159886                       # number of demand (read+write) MSHR hits
system.cpu.dcache.overall_mshr_hits::.cpu.data      1159886                       # number of overall MSHR hits
system.cpu.dcache.overall_mshr_hits::total      1159886                       # number of overall MSHR hits
system.cpu.dcache.demand_mshr_misses::.cpu.data       154851                       # number of demand (read+write) MSHR misses
system.cpu.dcache.demand_mshr_misses::total       154851                       # number of demand (read+write) MSHR misses
system.cpu.dcache.overall_mshr_misses::.cpu.data       154853                       # number of overall MSHR misses
system.cpu.dcache.overall_mshr_misses::total       154853                       # number of overall MSHR misses
system.cpu.dcache.demand_mshr_miss_latency::.cpu.data  13874486496                       # number of demand (read+write) MSHR miss cycles
system.cpu.dcache.demand_mshr_miss_latency::total  13874486496                       # number of demand (read+write) MSHR miss cycles
system.cpu.dcache.overall_mshr_miss_latency::.cpu.data  13874648996                       # number of overall MSHR miss cycles
system.cpu.dcache.overall_mshr_miss_latency::total  13874648996                       # number of overall MSHR miss cycles
system.cpu.dcache.demand_mshr_miss_rate::.cpu.data     0.038227                       # mshr miss rate for demand accesses
system.cpu.dcache.demand_mshr_miss_rate::total     0.038227                       # mshr miss rate for demand accesses
system.cpu.dcache.overall_mshr_miss_rate::.cpu.data     0.038227                       # mshr miss rate for overall accesses
system.cpu.dcache.overall_mshr_miss_rate::total     0.038227                       # mshr miss rate for overall accesses
system.cpu.dcache.demand_avg_mshr_miss_latency::.cpu.data 89598.946704                       # average overall mshr miss latency
system.cpu.dcache.demand_avg_mshr_miss_latency::total 89598.946704                       # average overall mshr miss latency
system.cpu.dcache.overall_avg_mshr_miss_latency::.cpu.data 89598.838873                       # average overall mshr miss latency
system.cpu.dcache.overall_avg_mshr_miss_latency::total 89598.838873                       # average overall mshr miss latency
system.cpu.dcache.replacements                 154538                       # number of replacements
system.cpu.dcache.ReadReq_hits::.cpu.data      2730743                       # number of ReadReq hits
system.cpu.dcache.ReadReq_hits::total         2730743                       # number of ReadReq hits
system.cpu.dcache.ReadReq_misses::.cpu.data          286                       # number of ReadReq misses
system.cpu.dcache.ReadReq_misses::total           286                       # number of ReadReq misses
system.cpu.dcache.ReadReq_miss_latency::.cpu.data     22131500                       # number of ReadReq miss cycles
system.cpu.dcache.ReadReq_miss_latency::total     22131500                       # number of ReadReq miss cycles
system.cpu.dcache.ReadReq_accesses::.cpu.data      2731029                       # number of ReadReq accesses(hits+misses)
system.cpu.dcache.ReadReq_accesses::total      2731029                       # number of ReadReq accesses(hits+misses)
system.cpu.dcache.ReadReq_miss_rate::.cpu.data     0.000105                       # miss rate for ReadReq accesses
system.cpu.dcache.ReadReq_miss_rate::total     0.000105                       # miss rate for ReadReq accesses
system.cpu.dcache.ReadReq_avg_miss_latency::.cpu.data 77382.867133                       # average ReadReq miss latency
system.cpu.dcache.ReadReq_avg_miss_latency::total 77382.867133                       # average ReadReq miss latency
system.cpu.dcache.ReadReq_mshr_hits::.cpu.data          151                       # number of ReadReq MSHR hits
system.cpu.dcache.ReadReq_mshr_hits::total          151                       # number of ReadReq MSHR hits
system.cpu.dcache.ReadReq_mshr_misses::.cpu.data          135                       # number of ReadReq MSHR misses
system.cpu.dcache.ReadReq_mshr_misses::total          135                       # number of ReadReq MSHR misses
system.cpu.dcache.ReadReq_mshr_miss_latency::.cpu.data     11542500                       # number of ReadReq MSHR miss cycles
system.cpu.dcache.ReadReq_mshr_miss_latency::total     11542500                       # number of ReadReq MSHR miss cycles
system.cpu.dcache.ReadReq_mshr_miss_rate::.cpu.data     0.000049                       # mshr miss rate for ReadReq accesses
system.cpu.dcache.ReadReq_mshr_miss_rate::total     0.000049                       # mshr miss rate for ReadReq accesses
system.cpu.dcache.ReadReq_avg_mshr_miss_latency::.cpu.data        85500                       # average ReadReq mshr miss latency
system.cpu.dcache.ReadReq_avg_mshr_miss_latency::total        85500                       # average ReadReq mshr miss latency
system.cpu.dcache.WriteReq_hits::.cpu.data         5334                       # number of WriteReq hits
system.cpu.dcache.WriteReq_hits::total           5334                       # number of WriteReq hits
system.cpu.dcache.WriteReq_misses::.cpu.data      1314444                       # number of WriteReq misses
system.cpu.dcache.WriteReq_misses::total      1314444                       # number of WriteReq misses
system.cpu.dcache.WriteReq_miss_latency::.cpu.data 103282353617                       # number of WriteReq miss cycles
system.cpu.dcache.WriteReq_miss_latency::total 103282353617                       # number of WriteReq miss cycles
system.cpu.dcache.WriteReq_accesses::.cpu.data      1319778                       # number of WriteReq accesses(hits+misses)
system.cpu.dcache.WriteReq_accesses::total      1319778                       # number of WriteReq accesses(hits+misses)
system.cpu.dcache.WriteReq_miss_rate::.cpu.data     0.995958                       # miss rate for WriteReq accesses
system.cpu.dcache.WriteReq_miss_rate::total     0.995958                       # miss rate for WriteReq accesses
system.cpu.dcache.WriteReq_avg_miss_latency::.cpu.data 78574.936336                       # average WriteReq miss latency
system.cpu.dcache.WriteReq_avg_miss_latency::total 78574.936336                       # average WriteReq miss latency
system.cpu.dcache.WriteReq_mshr_hits::.cpu.data      1159735                       # number of WriteReq MSHR hits
system.cpu.dcache.WriteReq_mshr_hits::total      1159735                       # number of WriteReq MSHR hits
system.cpu.dcache.WriteReq_mshr_misses::.cpu.data       154709                       # number of WriteReq MSHR misses
system.cpu.dcache.WriteReq_mshr_misses::total       154709                       # number of WriteReq MSHR misses
system.cpu.dcache.WriteReq_mshr_miss_latency::.cpu.data  13862728498                       # number of WriteReq MSHR miss cycles
system.cpu.dcache.WriteReq_mshr_miss_latency::total  13862728498                       # number of WriteReq MSHR miss cycles
system.cpu.dcache.WriteReq_mshr_miss_rate::.cpu.data     0.117224                       # mshr miss rate for WriteReq accesses
system.cpu.dcache.WriteReq_mshr_miss_rate::total     0.117224                       # mshr miss rate for WriteReq accesses
system.cpu.dcache.WriteReq_avg_mshr_miss_latency::.cpu.data 89605.184559                       # average WriteReq mshr miss latency
system.cpu.dcache.WriteReq_avg_mshr_miss_latency::total 89605.184559                       # average WriteReq mshr miss latency
system.cpu.dcache.SoftPFReq_hits::.cpu.data           53                       # number of SoftPFReq hits
system.cpu.dcache.SoftPFReq_hits::total            53                       # number of SoftPFReq hits
system.cpu.dcache.SoftPFReq_misses::.cpu.data            2                       # number of SoftPFReq misses
system.cpu.dcache.SoftPFReq_misses::total            2                       # number of SoftPFReq misses
system.cpu.dcache.SoftPFReq_accesses::.cpu.data           55                       # number of SoftPFReq accesses(hits+misses)
system.cpu.dcache.SoftPFReq_accesses::total           55                       # number of SoftPFReq accesses(hits+misses)
system.cpu.dcache.SoftPFReq_miss_rate::.cpu.data     0.036364                       # miss rate for SoftPFReq accesses
system.cpu.dcache.SoftPFReq_miss_rate::total     0.036364                       # miss rate for SoftPFReq accesses
system.cpu.dcache.SoftPFReq_mshr_misses::.cpu.data            2                       # number of SoftPFReq MSHR misses
system.cpu.dcache.SoftPFReq_mshr_misses::total            2                       # number of SoftPFReq MSHR misses
system.cpu.dcache.SoftPFReq_mshr_miss_latency::.cpu.data       162500                       # number of SoftPFReq MSHR miss cycles
system.cpu.dcache.SoftPFReq_mshr_miss_latency::total       162500                       # number of SoftPFReq MSHR miss cycles
system.cpu.dcache.SoftPFReq_mshr_miss_rate::.cpu.data     0.036364                       # mshr miss rate for SoftPFReq accesses
system.cpu.dcache.SoftPFReq_mshr_miss_rate::total     0.036364                       # mshr miss rate for SoftPFReq accesses
system.cpu.dcache.SoftPFReq_avg_mshr_miss_latency::.cpu.data        81250                       # average SoftPFReq mshr miss latency
system.cpu.dcache.SoftPFReq_avg_mshr_miss_latency::total        81250                       # average SoftPFReq mshr miss latency
system.cpu.dcache.WriteLineReq_misses::.cpu.data            7                       # number of WriteLineReq misses
system.cpu.dcache.WriteLineReq_misses::total            7                       # number of WriteLineReq misses
system.cpu.dcache.WriteLineReq_miss_latency::.cpu.data       222498                       # number of WriteLineReq miss cycles
system.cpu.dcache.WriteLineReq_miss_latency::total       222498                       # number of WriteLineReq miss cycles
system.cpu.dcache.WriteLineReq_accesses::.cpu.data            7                       # number of WriteLineReq accesses(hits+misses)
system.cpu.dcache.WriteLineReq_accesses::total            7                       # number of WriteLineReq accesses(hits+misses)
system.cpu.dcache.WriteLineReq_miss_rate::.cpu.data            1                       # miss rate for WriteLineReq accesses
system.cpu.dcache.WriteLineReq_miss_rate::total            1                       # miss rate for WriteLineReq accesses
system.cpu.dcache.WriteLineReq_avg_miss_latency::.cpu.data 31785.428571                       # average WriteLineReq miss latency
system.cpu.dcache.WriteLineReq_avg_miss_latency::total 31785.428571                       # average WriteLineReq miss latency
system.cpu.dcache.WriteLineReq_mshr_misses::.cpu.data            7                       # number of WriteLineReq MSHR misses
system.cpu.dcache.WriteLineReq_mshr_misses::total            7                       # number of WriteLineReq MSHR misses
system.cpu.dcache.WriteLineReq_mshr_miss_latency::.cpu.data       215498                       # number of WriteLineReq MSHR miss cycles
system.cpu.dcache.WriteLineReq_mshr_miss_latency::total       215498                       # number of WriteLineReq MSHR miss cycles
system.cpu.dcache.WriteLineReq_mshr_miss_rate::.cpu.data            1                       # mshr miss rate for WriteLineReq accesses
system.cpu.dcache.WriteLineReq_mshr_miss_rate::total            1                       # mshr miss rate for WriteLineReq accesses
system.cpu.dcache.WriteLineReq_avg_mshr_miss_latency::.cpu.data 30785.428571                       # average WriteLineReq mshr miss latency
system.cpu.dcache.WriteLineReq_avg_mshr_miss_latency::total 30785.428571                       # average WriteLineReq mshr miss latency
system.cpu.dcache.LoadLockedReq_hits::.cpu.data          166                       # number of LoadLockedReq hits
system.cpu.dcache.LoadLockedReq_hits::total          166                       # number of LoadLockedReq hits
system.cpu.dcache.LoadLockedReq_misses::.cpu.data            1                       # number of LoadLockedReq misses
system.cpu.dcache.LoadLockedReq_misses::total            1                       # number of LoadLockedReq misses
system.cpu.dcache.LoadLockedReq_miss_latency::.cpu.data        74500                       # number of LoadLockedReq miss cycles
system.cpu.dcache.LoadLockedReq_miss_latency::total        74500                       # number of LoadLockedReq miss cycles
system.cpu.dcache.LoadLockedReq_accesses::.cpu.data          167                       # number of LoadLockedReq accesses(hits+misses)
system.cpu.dcache.LoadLockedReq_accesses::total          167                       # number of LoadLockedReq accesses(hits+misses)
system.cpu.dcache.LoadLockedReq_miss_rate::.cpu.data     0.005988                       # miss rate for LoadLockedReq accesses
system.cpu.dcache.LoadLockedReq_miss_rate::total     0.005988                       # miss rate for LoadLockedReq accesses
system.cpu.dcache.LoadLockedReq_avg_miss_latency::.cpu.data        74500                       # average LoadLockedReq miss latency
system.cpu.dcache.LoadLockedReq_avg_miss_latency::total        74500                       # average LoadLockedReq miss latency
system.cpu.dcache.LoadLockedReq_mshr_misses::.cpu.data            1                       # number of LoadLockedReq MSHR misses
system.cpu.dcache.LoadLockedReq_mshr_misses::total            1                       # number of LoadLockedReq MSHR misses
system.cpu.dcache.LoadLockedReq_mshr_miss_latency::.cpu.data        73500                       # number of LoadLockedReq MSHR miss cycles
system.cpu.dcache.LoadLockedReq_mshr_miss_latency::total        73500                       # number of LoadLockedReq MSHR miss cycles
system.cpu.dcache.LoadLockedReq_mshr_miss_rate::.cpu.data     0.005988                       # mshr miss rate for LoadLockedReq accesses
system.cpu.dcache.LoadLockedReq_mshr_miss_rate::total     0.005988                       # mshr miss rate for LoadLockedReq accesses
system.cpu.dcache.LoadLockedReq_avg_mshr_miss_latency::.cpu.data        73500                       # average LoadLockedReq mshr miss latency
system.cpu.dcache.LoadLockedReq_avg_mshr_miss_latency::total        73500                       # average LoadLockedReq mshr miss latency
system.cpu.dcache.StoreCondReq_hits::.cpu.data          142                       # number of StoreCondReq hits
system.cpu.dcache.StoreCondReq_hits::total          142                       # number of StoreCondReq hits
system.cpu.dcache.StoreCondReq_accesses::.cpu.data          142                       # number of StoreCondReq accesses(hits+misses)
system.cpu.dcache.StoreCondReq_accesses::total          142                       # number of StoreCondReq accesses(hits+misses)
system.cpu.dcache.power_state.pwrStateResidencyTicks::UNDEFINED   7611230500                       # Cumulative time (in ticks) in various power states
system.cpu.dcache.tags.tagsinuse           312.920318                       # Cycle average of tags in use
system.cpu.dcache.tags.total_refs             2891290                       # Total number of references to valid blocks.
system.cpu.dcache.tags.sampled_refs            154852                       # Sample count of references to valid blocks.
system.cpu.dcache.tags.avg_refs             18.671312                       # Average number of references to valid blocks.
system.cpu.dcache.tags.warmup_cycle            249500                       # Cycle when the warmup percentage was hit.
system.cpu.dcache.tags.occ_blocks::.cpu.data   312.920318                       # Average occupied blocks per requestor
system.cpu.dcache.tags.occ_percent::.cpu.data     0.305586                       # Average percentage of cache occupancy
system.cpu.dcache.tags.occ_percent::total     0.305586                       # Average percentage of cache occupancy
system.cpu.dcache.tags.occ_task_id_blocks::1024          314                       # Occupied blocks per task id
system.cpu.dcache.tags.age_task_id_blocks_1024::0           64                       # Occupied blocks per task id
system.cpu.dcache.tags.age_task_id_blocks_1024::3          250                       # Occupied blocks per task id
system.cpu.dcache.tags.occ_task_id_percent::1024     0.306641                       # Percentage of cache occupancy per task id
system.cpu.dcache.tags.tag_accesses           8257208                       # Number of tag accesses
system.cpu.dcache.tags.data_accesses          8257208                       # Number of data accesses
system.cpu.dcache.tags.power_state.pwrStateResidencyTicks::UNDEFINED   7611230500                       # Cumulative time (in ticks) in various power states
system.cpu.power_state.pwrStateResidencyTicks::ON   7611230500                       # Cumulative time (in ticks) in various power states

---------- End Simulation Statistics   ----------
