
---------- Begin Simulation Statistics ----------
final_tick                                 7543429500                       # Number of ticks from beginning of simulation (restored from checkpoints and never reset)
host_inst_rate                                 141312                       # Simulator instruction rate (inst/s)
host_mem_usage                                 885024                       # Number of bytes of host memory used
host_op_rate                                   145752                       # Simulator op (including micro ops) rate (op/s)
host_seconds                                    70.77                       # Real time elapsed on the host
host_tick_rate                              106597098                       # Simulator tick rate (ticks/s)
sim_freq                                 1000000000000                       # Frequency of simulated ticks
sim_insts                                    10000000                       # Number of instructions simulated
sim_ops                                      10314289                       # Number of ops (including micro ops) simulated
sim_seconds                                  0.007543                       # Number of seconds simulated
sim_ticks                                  7543429500                       # Number of ticks simulated
system.cpu.branchPred.BTBCorrect                    0                       # Number of correct BTB predictions (this stat may not work properly.
system.cpu.branchPred.BTBHitPct             99.842626                       # BTB Hit Percentage
system.cpu.branchPred.BTBHits                  711194                       # Number of BTB hits
system.cpu.branchPred.BTBLookups               712315                       # Number of BTB lookups
system.cpu.branchPred.RASInCorrect                  2                       # Number of incorrect RAS predictions.
system.cpu.branchPred.condIncorrect              5125                       # Number of conditional branches incorrect
system.cpu.branchPred.condPredicted            381889                       # Number of conditional branches predicted
system.cpu.branchPred.indirectHits                 84                       # Number of indirect target hits.
system.cpu.branchPred.indirectLookups             283                       # Number of indirect predictor lookups.
system.cpu.branchPred.indirectMisses              199                       # Number of indirect misses.
system.cpu.branchPred.lookups                 1404983                       # Number of BP lookups
system.cpu.branchPred.usedRAS                  506683                       # Number of times the RAS was used to get a target.
system.cpu.branchPredindirectMispredicted           94                       # Number of mispredicted indirect branches.
system.cpu.cc_regfile_reads                    614853                       # number of cc regfile reads
system.cpu.cc_regfile_writes                   614658                       # number of cc regfile writes
system.cpu.commit.amos                              0                       # Number of atomic instructions committed
system.cpu.commit.branchMispredicts              4820                       # The number of times a branch was mispredicted
system.cpu.commit.branches                     864158                       # Number of branches committed
system.cpu.commit.bw_lim_events                653383                       # number cycles where commit BW limit reached
system.cpu.commit.commitNonSpecStalls             169                       # The number of times commit has been forced to stall to communicate backwards
system.cpu.commit.commitSquashedInsts         5168245                       # The number of squashed insts skipped by commit
system.cpu.commit.committedInsts             10003896                       # Number of instructions committed
system.cpu.commit.committedOps               10318185                       # Number of ops (including micro ops) committed
system.cpu.commit.committed_per_cycle::samples     14372669                       # Number of insts commited each cycle
system.cpu.commit.committed_per_cycle::mean     0.717903                       # Number of insts commited each cycle
system.cpu.commit.committed_per_cycle::stdev     1.821966                       # Number of insts commited each cycle
system.cpu.commit.committed_per_cycle::underflows            0      0.00%      0.00% # Number of insts commited each cycle
system.cpu.commit.committed_per_cycle::0     10685013     74.34%     74.34% # Number of insts commited each cycle
system.cpu.commit.committed_per_cycle::1      2036229     14.17%     88.51% # Number of insts commited each cycle
system.cpu.commit.committed_per_cycle::2       540383      3.76%     92.27% # Number of insts commited each cycle
system.cpu.commit.committed_per_cycle::3       109521      0.76%     93.03% # Number of insts commited each cycle
system.cpu.commit.committed_per_cycle::4       201524      1.40%     94.43% # Number of insts commited each cycle
system.cpu.commit.committed_per_cycle::5        69419      0.48%     94.92% # Number of insts commited each cycle
system.cpu.commit.committed_per_cycle::6        48007      0.33%     95.25% # Number of insts commited each cycle
system.cpu.commit.committed_per_cycle::7        29190      0.20%     95.45% # Number of insts commited each cycle
system.cpu.commit.committed_per_cycle::8       653383      4.55%    100.00% # Number of insts commited each cycle
system.cpu.commit.committed_per_cycle::overflows            0      0.00%    100.00% # Number of insts commited each cycle
system.cpu.commit.committed_per_cycle::min_value            0                       # Number of insts commited each cycle
system.cpu.commit.committed_per_cycle::max_value            8                       # Number of insts commited each cycle
system.cpu.commit.committed_per_cycle::total     14372669                       # Number of insts commited each cycle
system.cpu.commit.fp_insts                          0                       # Number of committed floating point instructions.
system.cpu.commit.function_calls               309623                       # Number of function calls committed.
system.cpu.commit.int_insts                  10148299                       # Number of committed integer instructions.
system.cpu.commit.loads                       1601695                       # Number of loads committed
system.cpu.commit.membars                         142                       # Number of memory barriers committed
system.cpu.commit.op_class_0::No_OpClass           35      0.00%      0.00% # Class of committed instruction
system.cpu.commit.op_class_0::IntAlu          5154710     49.96%     49.96% # Class of committed instruction
system.cpu.commit.op_class_0::IntMult         1623084     15.73%     65.69% # Class of committed instruction
system.cpu.commit.op_class_0::IntDiv           618291      5.99%     71.68% # Class of committed instruction
system.cpu.commit.op_class_0::FloatAdd              0      0.00%     71.68% # Class of committed instruction
system.cpu.commit.op_class_0::FloatCmp              0      0.00%     71.68% # Class of committed instruction
system.cpu.commit.op_class_0::FloatCvt              0      0.00%     71.68% # Class of committed instruction
system.cpu.commit.op_class_0::FloatMult             0      0.00%     71.68% # Class of committed instruction
system.cpu.commit.op_class_0::FloatMultAcc            0      0.00%     71.68% # Class of committed instruction
system.cpu.commit.op_class_0::FloatDiv              0      0.00%     71.68% # Class of committed instruction
system.cpu.commit.op_class_0::FloatMisc             0      0.00%     71.68% # Class of committed instruction
system.cpu.commit.op_class_0::FloatSqrt             0      0.00%     71.68% # Class of committed instruction
system.cpu.commit.op_class_0::SimdAdd              83      0.00%     71.68% # Class of committed instruction
system.cpu.commit.op_class_0::SimdAddAcc            0      0.00%     71.68% # Class of committed instruction
system.cpu.commit.op_class_0::SimdAlu             138      0.00%     71.68% # Class of committed instruction
system.cpu.commit.op_class_0::SimdCmp             140      0.00%     71.68% # Class of committed instruction
system.cpu.commit.op_class_0::SimdCvt               0      0.00%     71.68% # Class of committed instruction
system.cpu.commit.op_class_0::SimdMisc            103      0.00%     71.68% # Class of committed instruction
system.cpu.commit.op_class_0::SimdMult              0      0.00%     71.68% # Class of committed instruction
system.cpu.commit.op_class_0::SimdMultAcc            0      0.00%     71.68% # Class of committed instruction
system.cpu.commit.op_class_0::SimdShift             0      0.00%     71.68% # Class of committed instruction
system.cpu.commit.op_class_0::SimdShiftAcc            0      0.00%     71.68% # Class of committed instruction
system.cpu.commit.op_class_0::SimdDiv               0      0.00%     71.68% # Class of committed instruction
system.cpu.commit.op_class_0::SimdSqrt              0      0.00%     71.68% # Class of committed instruction
system.cpu.commit.op_class_0::SimdFloatAdd            0      0.00%     71.68% # Class of committed instruction
system.cpu.commit.op_class_0::SimdFloatAlu            0      0.00%     71.68% # Class of committed instruction
system.cpu.commit.op_class_0::SimdFloatCmp            0      0.00%     71.68% # Class of committed instruction
system.cpu.commit.op_class_0::SimdFloatCvt            0      0.00%     71.68% # Class of committed instruction
system.cpu.commit.op_class_0::SimdFloatDiv            0      0.00%     71.68% # Class of committed instruction
system.cpu.commit.op_class_0::SimdFloatMisc            0      0.00%     71.68% # Class of committed instruction
system.cpu.commit.op_class_0::SimdFloatMult            0      0.00%     71.68% # Class of committed instruction
system.cpu.commit.op_class_0::SimdFloatMultAcc            0      0.00%     71.68% # Class of committed instruction
system.cpu.commit.op_class_0::SimdFloatSqrt            0      0.00%     71.68% # Class of committed instruction
system.cpu.commit.op_class_0::SimdReduceAdd            0      0.00%     71.68% # Class of committed instruction
system.cpu.commit.op_class_0::SimdReduceAlu            0      0.00%     71.68% # Class of committed instruction
system.cpu.commit.op_class_0::SimdReduceCmp            0      0.00%     71.68% # Class of committed instruction
system.cpu.commit.op_class_0::SimdFloatReduceAdd            0      0.00%     71.68% # Class of committed instruction
system.cpu.commit.op_class_0::SimdFloatReduceCmp            0      0.00%     71.68% # Class of committed instruction
system.cpu.commit.op_class_0::SimdAes               0      0.00%     71.68% # Class of committed instruction
system.cpu.commit.op_class_0::SimdAesMix            0      0.00%     71.68% # Class of committed instruction
system.cpu.commit.op_class_0::SimdSha1Hash            0      0.00%     71.68% # Class of committed instruction
system.cpu.commit.op_class_0::SimdSha1Hash2            0      0.00%     71.68% # Class of committed instruction
system.cpu.commit.op_class_0::SimdSha256Hash            0      0.00%     71.68% # Class of committed instruction
system.cpu.commit.op_class_0::SimdSha256Hash2            0      0.00%     71.68% # Class of committed instruction
system.cpu.commit.op_class_0::SimdShaSigma2            0      0.00%     71.68% # Class of committed instruction
system.cpu.commit.op_class_0::SimdShaSigma3            0      0.00%     71.68% # Class of committed instruction
system.cpu.commit.op_class_0::SimdPredAlu            0      0.00%     71.68% # Class of committed instruction
system.cpu.commit.op_class_0::MemRead         1601695     15.52%     87.21% # Class of committed instruction
system.cpu.commit.op_class_0::MemWrite        1319906     12.79%    100.00% # Class of committed instruction
system.cpu.commit.op_class_0::FloatMemRead            0      0.00%    100.00% # Class of committed instruction
system.cpu.commit.op_class_0::FloatMemWrite            0      0.00%    100.00% # Class of committed instruction
system.cpu.commit.op_class_0::IprAccess             0      0.00%    100.00% # Class of committed instruction
system.cpu.commit.op_class_0::InstPrefetch            0      0.00%    100.00% # Class of committed instruction
system.cpu.commit.op_class_0::total          10318185                       # Class of committed instruction
system.cpu.commit.refs                        2921601                       # Number of memory references committed
system.cpu.commit.swp_count                         0                       # Number of s/w prefetches committed
system.cpu.commit.vec_insts                      1073                       # Number of committed Vector instructions.
system.cpu.committedInsts                    10000000                       # Number of Instructions Simulated
system.cpu.committedOps                      10314289                       # Number of Ops (including micro ops) Simulated
system.cpu.cpi                               1.508686                       # CPI: Cycles Per Instruction
system.cpu.cpi_total                         1.508686                       # CPI: Total CPI of All Threads
system.cpu.decode.BlockedCycles              11199954                       # Number of cycles decode is blocked
system.cpu.decode.BranchMispred                   307                       # Number of times decode detected a branch misprediction
system.cpu.decode.BranchResolved               698979                       # Number of times decode resolved a branch
system.cpu.decode.DecodedInsts               17490411                       # Number of instructions handled by decode
system.cpu.decode.IdleCycles                  1158631                       # Number of cycles decode is idle
system.cpu.decode.RunCycles                   2094772                       # Number of cycles decode is running
system.cpu.decode.SquashCycles                  43543                       # Number of cycles decode is squashing
system.cpu.decode.SquashedInsts                  1030                       # Number of squashed instructions handled by decode
system.cpu.decode.UnblockCycles                541061                       # Number of cycles decode is unblocking
system.cpu.dtb.accesses                             0                       # DTB accesses
system.cpu.dtb.align_faults                         0                       # Number of TLB faults due to alignment restrictions
system.cpu.dtb.domain_faults                        0                       # Number of TLB faults due to domain restrictions
system.cpu.dtb.flush_entries                        0                       # Number of entries that have been flushed from TLB
system.cpu.dtb.flush_tlb                            0                       # Number of times complete TLB was flushed
system.cpu.dtb.flush_tlb_asid                       0                       # Number of times TLB was flushed by ASID
system.cpu.dtb.flush_tlb_mva                        0                       # Number of times TLB was flushed by MVA
system.cpu.dtb.flush_tlb_mva_asid                   0                       # Number of times TLB was flushed by MVA & ASID
system.cpu.dtb.hits                                 0                       # DTB hits
system.cpu.dtb.inst_accesses                        0                       # ITB inst accesses
system.cpu.dtb.inst_hits                            0                       # ITB inst hits
system.cpu.dtb.inst_misses                          0                       # ITB inst misses
system.cpu.dtb.misses                               0                       # DTB misses
system.cpu.dtb.perms_faults                         0                       # Number of TLB faults due to permissions restrictions
system.cpu.dtb.prefetch_faults                      0                       # Number of TLB faults due to prefetch
system.cpu.dtb.read_accesses                        0                       # DTB read accesses
system.cpu.dtb.read_hits                            0                       # DTB read hits
system.cpu.dtb.read_misses                          0                       # DTB read misses
system.cpu.dtb.stage2_mmu.stage2_tlb.accesses            0                       # DTB accesses
system.cpu.dtb.stage2_mmu.stage2_tlb.align_faults            0                       # Number of TLB faults due to alignment restrictions
system.cpu.dtb.stage2_mmu.stage2_tlb.domain_faults            0                       # Number of TLB faults due to domain restrictions
system.cpu.dtb.stage2_mmu.stage2_tlb.flush_entries            0                       # Number of entries that have been flushed from TLB
system.cpu.dtb.stage2_mmu.stage2_tlb.flush_tlb            0                       # Number of times complete TLB was flushed
system.cpu.dtb.stage2_mmu.stage2_tlb.flush_tlb_asid            0                       # Number of times TLB was flushed by ASID
system.cpu.dtb.stage2_mmu.stage2_tlb.flush_tlb_mva            0                       # Number of times TLB was flushed by MVA
system.cpu.dtb.stage2_mmu.stage2_tlb.flush_tlb_mva_asid            0                       # Number of times TLB was flushed by MVA & ASID
system.cpu.dtb.stage2_mmu.stage2_tlb.hits            0                       # DTB hits
system.cpu.dtb.stage2_mmu.stage2_tlb.inst_accesses            0                       # ITB inst accesses
system.cpu.dtb.stage2_mmu.stage2_tlb.inst_hits            0                       # ITB inst hits
system.cpu.dtb.stage2_mmu.stage2_tlb.inst_misses            0                       # ITB inst misses
system.cpu.dtb.stage2_mmu.stage2_tlb.misses            0                       # DTB misses
system.cpu.dtb.stage2_mmu.stage2_tlb.perms_faults            0                       # Number of TLB faults due to permissions restrictions
system.cpu.dtb.stage2_mmu.stage2_tlb.prefetch_faults            0                       # Number of TLB faults due to prefetch
system.cpu.dtb.stage2_mmu.stage2_tlb.read_accesses            0                       # DTB read accesses
system.cpu.dtb.stage2_mmu.stage2_tlb.read_hits            0                       # DTB read hits
system.cpu.dtb.stage2_mmu.stage2_tlb.read_misses            0                       # DTB read misses
system.cpu.dtb.stage2_mmu.stage2_tlb.walker.walkRequestOrigin_Requested::Data            0                       # Table walker requests started/completed, data/inst
system.cpu.dtb.stage2_mmu.stage2_tlb.walker.walkRequestOrigin_Requested::Inst            0                       # Table walker requests started/completed, data/inst
system.cpu.dtb.stage2_mmu.stage2_tlb.walker.walkRequestOrigin_Requested::total            0                       # Table walker requests started/completed, data/inst
system.cpu.dtb.stage2_mmu.stage2_tlb.walker.walkRequestOrigin_Completed::Data            0                       # Table walker requests started/completed, data/inst
system.cpu.dtb.stage2_mmu.stage2_tlb.walker.walkRequestOrigin_Completed::Inst            0                       # Table walker requests started/completed, data/inst
system.cpu.dtb.stage2_mmu.stage2_tlb.walker.walkRequestOrigin_Completed::total            0                       # Table walker requests started/completed, data/inst
system.cpu.dtb.stage2_mmu.stage2_tlb.walker.walkRequestOrigin::total            0                       # Table walker requests started/completed, data/inst
system.cpu.dtb.stage2_mmu.stage2_tlb.walker.walks            0                       # Table walker walks requested
system.cpu.dtb.stage2_mmu.stage2_tlb.write_accesses            0                       # DTB write accesses
system.cpu.dtb.stage2_mmu.stage2_tlb.write_hits            0                       # DTB write hits
system.cpu.dtb.stage2_mmu.stage2_tlb.write_misses            0                       # DTB write misses
system.cpu.dtb.walker.walkRequestOrigin_Requested::Data            0                       # Table walker requests started/completed, data/inst
system.cpu.dtb.walker.walkRequestOrigin_Requested::Inst            0                       # Table walker requests started/completed, data/inst
system.cpu.dtb.walker.walkRequestOrigin_Requested::total            0                       # Table walker requests started/completed, data/inst
system.cpu.dtb.walker.walkRequestOrigin_Completed::Data            0                       # Table walker requests started/completed, data/inst
system.cpu.dtb.walker.walkRequestOrigin_Completed::Inst            0                       # Table walker requests started/completed, data/inst
system.cpu.dtb.walker.walkRequestOrigin_Completed::total            0                       # Table walker requests started/completed, data/inst
system.cpu.dtb.walker.walkRequestOrigin::total            0                       # Table walker requests started/completed, data/inst
system.cpu.dtb.walker.walks                         0                       # Table walker walks requested
system.cpu.dtb.write_accesses                       0                       # DTB write accesses
system.cpu.dtb.write_hits                           0                       # DTB write hits
system.cpu.dtb.write_misses                         0                       # DTB write misses
system.cpu.fetch.Branches                     1404983                       # Number of branches that fetch encountered
system.cpu.fetch.CacheLines                   2160974                       # Number of cache lines fetched
system.cpu.fetch.Cycles                      12790314                       # Number of cycles fetch has run and was not squashing or blocked
system.cpu.fetch.IcacheSquashes                 22640                       # Number of outstanding Icache misses that were squashed
system.cpu.fetch.Insts                       17677314                       # Number of instructions fetch has processed
system.cpu.fetch.SquashCycles                   87696                       # Number of cycles fetch has spent squashing
system.cpu.fetch.branchRate                  0.093126                       # Number of branch fetches per cycle
system.cpu.fetch.icacheStallCycles            2203799                       # Number of cycles fetch is stalled on an Icache miss
system.cpu.fetch.predictedBranches            1217961                       # Number of branches that fetch has predicted taken
system.cpu.fetch.rate                        1.171703                       # Number of inst fetches per cycle
system.cpu.fetch.rateDist::samples           15037961                       # Number of instructions fetched each cycle (Total)
system.cpu.fetch.rateDist::mean              1.212534                       # Number of instructions fetched each cycle (Total)
system.cpu.fetch.rateDist::stdev             2.563448                       # Number of instructions fetched each cycle (Total)
system.cpu.fetch.rateDist::underflows               0      0.00%      0.00% # Number of instructions fetched each cycle (Total)
system.cpu.fetch.rateDist::0                 11607957     77.19%     77.19% # Number of instructions fetched each cycle (Total)
system.cpu.fetch.rateDist::1                   314545      2.09%     79.28% # Number of instructions fetched each cycle (Total)
system.cpu.fetch.rateDist::2                   553577      3.68%     82.96% # Number of instructions fetched each cycle (Total)
system.cpu.fetch.rateDist::3                   218321      1.45%     84.42% # Number of instructions fetched each cycle (Total)
system.cpu.fetch.rateDist::4                   214969      1.43%     85.85% # Number of instructions fetched each cycle (Total)
system.cpu.fetch.rateDist::5                   362271      2.41%     88.25% # Number of instructions fetched each cycle (Total)
system.cpu.fetch.rateDist::6                   279804      1.86%     90.11% # Number of instructions fetched each cycle (Total)
system.cpu.fetch.rateDist::7                    84817      0.56%     90.68% # Number of instructions fetched each cycle (Total)
system.cpu.fetch.rateDist::8                  1401700      9.32%    100.00% # Number of instructions fetched each cycle (Total)
system.cpu.fetch.rateDist::overflows                0      0.00%    100.00% # Number of instructions fetched each cycle (Total)
system.cpu.fetch.rateDist::min_value                0                       # Number of instructions fetched each cycle (Total)
system.cpu.fetch.rateDist::max_value                8                       # Number of instructions fetched each cycle (Total)
system.cpu.fetch.rateDist::total             15037961                       # Number of instructions fetched each cycle (Total)
system.cpu.icache.prefetcher.num_hwpf_issued            0                       # number of hwpf issued
system.cpu.icache.prefetcher.pfBufferHit            0                       # number of redundant prefetches already in prefetch queue
system.cpu.icache.prefetcher.pfIdentified            0                       # number of prefetch candidates identified
system.cpu.icache.prefetcher.pfInCache              0                       # number of redundant prefetches already in cache/mshr dropped
system.cpu.icache.prefetcher.pfRemovedFull            0                       # number of prefetches dropped due to prefetch queue size
system.cpu.icache.prefetcher.pfSpanPage             0                       # number of prefetches that crossed the page
system.cpu.idleCycles                           48899                       # Total number of cycles that the CPU has spent unscheduled due to idling
system.cpu.iew.branchMispredicts                 4919                       # Number of branch mispredicts detected at execute
system.cpu.iew.exec_branches                  1295014                       # Number of branches executed
system.cpu.iew.exec_nop                          3937                       # number of nop insts executed
system.cpu.iew.exec_rate                     1.006084                       # Inst execution rate
system.cpu.iew.exec_refs                      4728676                       # number of memory reference insts executed
system.cpu.iew.exec_stores                    1976680                       # Number of stores executed
system.cpu.iew.exec_swp                             0                       # number of swp insts executed
system.cpu.iew.iewBlockCycles                 3069269                       # Number of cycles IEW is blocking
system.cpu.iew.iewDispLoadInsts               2767932                       # Number of dispatched load instructions
system.cpu.iew.iewDispNonSpecInsts                221                       # Number of dispatched non-speculative instructions
system.cpu.iew.iewDispSquashedInsts               506                       # Number of squashed instructions skipped by dispatch
system.cpu.iew.iewDispStoreInsts              2263258                       # Number of dispatched store instructions
system.cpu.iew.iewDispatchedInsts            17026716                       # Number of instructions dispatched to IQ
system.cpu.iew.iewExecLoadInsts               2751996                       # Number of load instructions executed
system.cpu.iew.iewExecSquashedInsts             76102                       # Number of squashed instructions skipped in execute
system.cpu.iew.iewExecutedInsts              15178647                       # Number of executed instructions
system.cpu.iew.iewIQFullEvents                 206987                       # Number of times the IQ has become full, causing a stall
system.cpu.iew.iewIdleCycles                        0                       # Number of cycles IEW is idle
system.cpu.iew.iewLSQFullEvents                805828                       # Number of times the LSQ has become full, causing a stall
system.cpu.iew.iewSquashCycles                  43543                       # Number of cycles IEW is squashing
system.cpu.iew.iewUnblockCycles               1048547                       # Number of cycles IEW is unblocking
system.cpu.iew.lsq.thread0.blockedLoads             0                       # Number of blocked loads due to partial load-store forwarding
system.cpu.iew.lsq.thread0.cacheBlocked             0                       # Number of times an access to memory failed due to the cache being blocked
system.cpu.iew.lsq.thread0.forwLoads              301                       # Number of loads that had data forwarded from stores
system.cpu.iew.lsq.thread0.ignoredResponses           10                       # Number of memory responses ignored because the instruction is squashed
system.cpu.iew.lsq.thread0.invAddrLoads             0                       # Number of loads ignored due to an invalid address
system.cpu.iew.lsq.thread0.invAddrSwpfs             0                       # Number of software prefetches ignored due to an invalid address
system.cpu.iew.lsq.thread0.memOrderViolation           47                       # Number of memory ordering violations
system.cpu.iew.lsq.thread0.rescheduledLoads          151                       # Number of loads that were rescheduled
system.cpu.iew.lsq.thread0.squashedLoads      1166217                       # Number of loads squashed
system.cpu.iew.lsq.thread0.squashedStores       943333                       # Number of stores squashed
system.cpu.iew.memOrderViolationEvents             47                       # Number of memory order violations
system.cpu.iew.predictedNotTakenIncorrect          758                       # Number of branches that were predicted not taken incorrectly
system.cpu.iew.predictedTakenIncorrect           4161                       # Number of branches that were predicted taken incorrectly
system.cpu.iew.wb_consumers                  16190985                       # num instructions consuming a value
system.cpu.iew.wb_count                      14513599                       # cumulative count of insts written-back
system.cpu.iew.wb_fanout                     0.646539                       # average fanout of values written-back
system.cpu.iew.wb_producers                  10468111                       # num instructions producing a value
system.cpu.iew.wb_rate                       0.962003                       # insts written-back per cycle
system.cpu.iew.wb_sent                       15169606                       # cumulative count of insts sent to commit
system.cpu.int_regfile_reads                 22643189                       # number of integer regfile reads
system.cpu.int_regfile_writes                12637112                       # number of integer regfile writes
system.cpu.ipc                               0.662828                       # IPC: Instructions Per Cycle
system.cpu.ipc_total                         0.662828                       # IPC: Total IPC of All Threads
system.cpu.iq.FU_type_0::No_OpClass                40      0.00%      0.00% # Type of FU issued
system.cpu.iq.FU_type_0::IntAlu               7770348     50.94%     50.94% # Type of FU issued
system.cpu.iq.FU_type_0::IntMult              2047455     13.42%     64.36% # Type of FU issued
system.cpu.iq.FU_type_0::IntDiv                695962      4.56%     68.92% # Type of FU issued
system.cpu.iq.FU_type_0::FloatAdd                   0      0.00%     68.92% # Type of FU issued
system.cpu.iq.FU_type_0::FloatCmp                   0      0.00%     68.92% # Type of FU issued
system.cpu.iq.FU_type_0::FloatCvt                   0      0.00%     68.92% # Type of FU issued
system.cpu.iq.FU_type_0::FloatMult                  0      0.00%     68.92% # Type of FU issued
system.cpu.iq.FU_type_0::FloatMultAcc               0      0.00%     68.92% # Type of FU issued
system.cpu.iq.FU_type_0::FloatDiv                   0      0.00%     68.92% # Type of FU issued
system.cpu.iq.FU_type_0::FloatMisc                  0      0.00%     68.92% # Type of FU issued
system.cpu.iq.FU_type_0::FloatSqrt                  0      0.00%     68.92% # Type of FU issued
system.cpu.iq.FU_type_0::SimdAdd                   94      0.00%     68.92% # Type of FU issued
system.cpu.iq.FU_type_0::SimdAddAcc                 0      0.00%     68.92% # Type of FU issued
system.cpu.iq.FU_type_0::SimdAlu                  160      0.00%     68.92% # Type of FU issued
system.cpu.iq.FU_type_0::SimdCmp                  156      0.00%     68.92% # Type of FU issued
system.cpu.iq.FU_type_0::SimdCvt                    0      0.00%     68.92% # Type of FU issued
system.cpu.iq.FU_type_0::SimdMisc                 109      0.00%     68.92% # Type of FU issued
system.cpu.iq.FU_type_0::SimdMult                   0      0.00%     68.92% # Type of FU issued
system.cpu.iq.FU_type_0::SimdMultAcc                0      0.00%     68.92% # Type of FU issued
system.cpu.iq.FU_type_0::SimdShift                  0      0.00%     68.92% # Type of FU issued
system.cpu.iq.FU_type_0::SimdShiftAcc               0      0.00%     68.92% # Type of FU issued
system.cpu.iq.FU_type_0::SimdDiv                    0      0.00%     68.92% # Type of FU issued
system.cpu.iq.FU_type_0::SimdSqrt                   0      0.00%     68.92% # Type of FU issued
system.cpu.iq.FU_type_0::SimdFloatAdd               0      0.00%     68.92% # Type of FU issued
system.cpu.iq.FU_type_0::SimdFloatAlu               0      0.00%     68.92% # Type of FU issued
system.cpu.iq.FU_type_0::SimdFloatCmp               0      0.00%     68.92% # Type of FU issued
system.cpu.iq.FU_type_0::SimdFloatCvt               0      0.00%     68.92% # Type of FU issued
system.cpu.iq.FU_type_0::SimdFloatDiv               0      0.00%     68.92% # Type of FU issued
system.cpu.iq.FU_type_0::SimdFloatMisc              0      0.00%     68.92% # Type of FU issued
system.cpu.iq.FU_type_0::SimdFloatMult              0      0.00%     68.92% # Type of FU issued
system.cpu.iq.FU_type_0::SimdFloatMultAcc            0      0.00%     68.92% # Type of FU issued
system.cpu.iq.FU_type_0::SimdFloatSqrt              0      0.00%     68.92% # Type of FU issued
system.cpu.iq.FU_type_0::SimdReduceAdd              0      0.00%     68.92% # Type of FU issued
system.cpu.iq.FU_type_0::SimdReduceAlu              0      0.00%     68.92% # Type of FU issued
system.cpu.iq.FU_type_0::SimdReduceCmp              0      0.00%     68.92% # Type of FU issued
system.cpu.iq.FU_type_0::SimdFloatReduceAdd            0      0.00%     68.92% # Type of FU issued
system.cpu.iq.FU_type_0::SimdFloatReduceCmp            0      0.00%     68.92% # Type of FU issued
system.cpu.iq.FU_type_0::SimdAes                    0      0.00%     68.92% # Type of FU issued
system.cpu.iq.FU_type_0::SimdAesMix                 0      0.00%     68.92% # Type of FU issued
system.cpu.iq.FU_type_0::SimdSha1Hash               0      0.00%     68.92% # Type of FU issued
system.cpu.iq.FU_type_0::SimdSha1Hash2              0      0.00%     68.92% # Type of FU issued
system.cpu.iq.FU_type_0::SimdSha256Hash             0      0.00%     68.92% # Type of FU issued
system.cpu.iq.FU_type_0::SimdSha256Hash2            0      0.00%     68.92% # Type of FU issued
system.cpu.iq.FU_type_0::SimdShaSigma2              0      0.00%     68.92% # Type of FU issued
system.cpu.iq.FU_type_0::SimdShaSigma3              0      0.00%     68.92% # Type of FU issued
system.cpu.iq.FU_type_0::SimdPredAlu                0      0.00%     68.92% # Type of FU issued
system.cpu.iq.FU_type_0::MemRead              2763546     18.12%     87.04% # Type of FU issued
system.cpu.iq.FU_type_0::MemWrite             1976882     12.96%    100.00% # Type of FU issued
system.cpu.iq.FU_type_0::FloatMemRead               0      0.00%    100.00% # Type of FU issued
system.cpu.iq.FU_type_0::FloatMemWrite              0      0.00%    100.00% # Type of FU issued
system.cpu.iq.FU_type_0::IprAccess                  0      0.00%    100.00% # Type of FU issued
system.cpu.iq.FU_type_0::InstPrefetch               0      0.00%    100.00% # Type of FU issued
system.cpu.iq.FU_type_0::total               15254752                       # Type of FU issued
system.cpu.iq.fp_alu_accesses                       0                       # Number of floating point alu accesses
system.cpu.iq.fp_inst_queue_reads                   0                       # Number of floating instruction queue reads
system.cpu.iq.fp_inst_queue_wakeup_accesses            0                       # Number of floating instruction queue wakeup accesses
system.cpu.iq.fp_inst_queue_writes                  0                       # Number of floating instruction queue writes
system.cpu.iq.fu_busy_cnt                    12088159                       # FU busy when requested
system.cpu.iq.fu_busy_rate                   0.792419                       # FU busy rate (busy events/executed inst)
system.cpu.iq.fu_full::No_OpClass                   0      0.00%      0.00% # attempts to use FU when none available
system.cpu.iq.fu_full::IntAlu                   71869      0.59%      0.59% # attempts to use FU when none available
system.cpu.iq.fu_full::IntMult                6289708     52.03%     52.63% # attempts to use FU when none available
system.cpu.iq.fu_full::IntDiv                 5532551     45.77%     98.39% # attempts to use FU when none available
system.cpu.iq.fu_full::FloatAdd                     0      0.00%     98.39% # attempts to use FU when none available
system.cpu.iq.fu_full::FloatCmp                     0      0.00%     98.39% # attempts to use FU when none available
system.cpu.iq.fu_full::FloatCvt                     0      0.00%     98.39% # attempts to use FU when none available
system.cpu.iq.fu_full::FloatMult                    0      0.00%     98.39% # attempts to use FU when none available
system.cpu.iq.fu_full::FloatMultAcc                 0      0.00%     98.39% # attempts to use FU when none available
system.cpu.iq.fu_full::FloatDiv                     0      0.00%     98.39% # attempts to use FU when none available
system.cpu.iq.fu_full::FloatMisc                    0      0.00%     98.39% # attempts to use FU when none available
system.cpu.iq.fu_full::FloatSqrt                    0      0.00%     98.39% # attempts to use FU when none available
system.cpu.iq.fu_full::SimdAdd                      0      0.00%     98.39% # attempts to use FU when none available
system.cpu.iq.fu_full::SimdAddAcc                   0      0.00%     98.39% # attempts to use FU when none available
system.cpu.iq.fu_full::SimdAlu                      1      0.00%     98.39% # attempts to use FU when none available
system.cpu.iq.fu_full::SimdCmp                      6      0.00%     98.39% # attempts to use FU when none available
system.cpu.iq.fu_full::SimdCvt                      0      0.00%     98.39% # attempts to use FU when none available
system.cpu.iq.fu_full::SimdMisc                     0      0.00%     98.39% # attempts to use FU when none available
system.cpu.iq.fu_full::SimdMult                     0      0.00%     98.39% # attempts to use FU when none available
system.cpu.iq.fu_full::SimdMultAcc                  0      0.00%     98.39% # attempts to use FU when none available
system.cpu.iq.fu_full::SimdShift                    0      0.00%     98.39% # attempts to use FU when none available
system.cpu.iq.fu_full::SimdShiftAcc                 0      0.00%     98.39% # attempts to use FU when none available
system.cpu.iq.fu_full::SimdDiv                      0      0.00%     98.39% # attempts to use FU when none available
system.cpu.iq.fu_full::SimdSqrt                     0      0.00%     98.39% # attempts to use FU when none available
system.cpu.iq.fu_full::SimdFloatAdd                 0      0.00%     98.39% # attempts to use FU when none available
system.cpu.iq.fu_full::SimdFloatAlu                 0      0.00%     98.39% # attempts to use FU when none available
system.cpu.iq.fu_full::SimdFloatCmp                 0      0.00%     98.39% # attempts to use FU when none available
system.cpu.iq.fu_full::SimdFloatCvt                 0      0.00%     98.39% # attempts to use FU when none available
system.cpu.iq.fu_full::SimdFloatDiv                 0      0.00%     98.39% # attempts to use FU when none available
system.cpu.iq.fu_full::SimdFloatMisc                0      0.00%     98.39% # attempts to use FU when none available
system.cpu.iq.fu_full::SimdFloatMult                0      0.00%     98.39% # attempts to use FU when none available
system.cpu.iq.fu_full::SimdFloatMultAcc             0      0.00%     98.39% # attempts to use FU when none available
system.cpu.iq.fu_full::SimdFloatSqrt                0      0.00%     98.39% # attempts to use FU when none available
system.cpu.iq.fu_full::SimdReduceAdd                0      0.00%     98.39% # attempts to use FU when none available
system.cpu.iq.fu_full::SimdReduceAlu                0      0.00%     98.39% # attempts to use FU when none available
system.cpu.iq.fu_full::SimdReduceCmp                0      0.00%     98.39% # attempts to use FU when none available
system.cpu.iq.fu_full::SimdFloatReduceAdd            0      0.00%     98.39% # attempts to use FU when none available
system.cpu.iq.fu_full::SimdFloatReduceCmp            0      0.00%     98.39% # attempts to use FU when none available
system.cpu.iq.fu_full::SimdAes                      0      0.00%     98.39% # attempts to use FU when none available
system.cpu.iq.fu_full::SimdAesMix                   0      0.00%     98.39% # attempts to use FU when none available
system.cpu.iq.fu_full::SimdSha1Hash                 0      0.00%     98.39% # attempts to use FU when none available
system.cpu.iq.fu_full::SimdSha1Hash2                0      0.00%     98.39% # attempts to use FU when none available
system.cpu.iq.fu_full::SimdSha256Hash               0      0.00%     98.39% # attempts to use FU when none available
system.cpu.iq.fu_full::SimdSha256Hash2              0      0.00%     98.39% # attempts to use FU when none available
system.cpu.iq.fu_full::SimdShaSigma2                0      0.00%     98.39% # attempts to use FU when none available
system.cpu.iq.fu_full::SimdShaSigma3                0      0.00%     98.39% # attempts to use FU when none available
system.cpu.iq.fu_full::SimdPredAlu                  0      0.00%     98.39% # attempts to use FU when none available
system.cpu.iq.fu_full::MemRead                 115323      0.95%     99.35% # attempts to use FU when none available
system.cpu.iq.fu_full::MemWrite                 78701      0.65%    100.00% # attempts to use FU when none available
system.cpu.iq.fu_full::FloatMemRead                 0      0.00%    100.00% # attempts to use FU when none available
system.cpu.iq.fu_full::FloatMemWrite                0      0.00%    100.00% # attempts to use FU when none available
system.cpu.iq.fu_full::IprAccess                    0      0.00%    100.00% # attempts to use FU when none available
system.cpu.iq.fu_full::InstPrefetch                 0      0.00%    100.00% # attempts to use FU when none available
system.cpu.iq.int_alu_accesses               27341576                       # Number of integer alu accesses
system.cpu.iq.int_inst_queue_reads           57903609                       # Number of integer instruction queue reads
system.cpu.iq.int_inst_queue_wakeup_accesses     14512428                       # Number of integer instruction queue wakeup accesses
system.cpu.iq.int_inst_queue_writes          23729598                       # Number of integer instruction queue writes
system.cpu.iq.iqInstsAdded                   17022558                       # Number of instructions added to the IQ (excludes non-spec)
system.cpu.iq.iqInstsIssued                  15254752                       # Number of instructions issued
system.cpu.iq.iqNonSpecInstsAdded                 221                       # Number of non-speculative instructions added to the IQ
system.cpu.iq.iqSquashedInstsExamined         6708354                       # Number of squashed instructions iterated over during squash; mainly for profiling
system.cpu.iq.iqSquashedInstsIssued            270534                       # Number of squashed instructions issued
system.cpu.iq.iqSquashedNonSpecRemoved             52                       # Number of squashed non-spec instructions that were removed
system.cpu.iq.iqSquashedOperandsExamined      5158355                       # Number of squashed operands that are examined and possibly removed from graph
system.cpu.iq.issued_per_cycle::samples      15037961                       # Number of insts issued each cycle
system.cpu.iq.issued_per_cycle::mean         1.014416                       # Number of insts issued each cycle
system.cpu.iq.issued_per_cycle::stdev        1.613804                       # Number of insts issued each cycle
system.cpu.iq.issued_per_cycle::underflows            0      0.00%      0.00% # Number of insts issued each cycle
system.cpu.iq.issued_per_cycle::0             8850183     58.85%     58.85% # Number of insts issued each cycle
system.cpu.iq.issued_per_cycle::1             2210903     14.70%     73.55% # Number of insts issued each cycle
system.cpu.iq.issued_per_cycle::2             1813733     12.06%     85.62% # Number of insts issued each cycle
system.cpu.iq.issued_per_cycle::3              812073      5.40%     91.02% # Number of insts issued each cycle
system.cpu.iq.issued_per_cycle::4              505944      3.36%     94.38% # Number of insts issued each cycle
system.cpu.iq.issued_per_cycle::5              392531      2.61%     96.99% # Number of insts issued each cycle
system.cpu.iq.issued_per_cycle::6              197689      1.31%     98.30% # Number of insts issued each cycle
system.cpu.iq.issued_per_cycle::7              231641      1.54%     99.85% # Number of insts issued each cycle
system.cpu.iq.issued_per_cycle::8               23264      0.15%    100.00% # Number of insts issued each cycle
system.cpu.iq.issued_per_cycle::overflows            0      0.00%    100.00% # Number of insts issued each cycle
system.cpu.iq.issued_per_cycle::min_value            0                       # Number of insts issued each cycle
system.cpu.iq.issued_per_cycle::max_value            8                       # Number of insts issued each cycle
system.cpu.iq.issued_per_cycle::total        15037961                       # Number of insts issued each cycle
system.cpu.iq.rate                           1.011128                       # Inst issue rate
system.cpu.iq.vec_alu_accesses                   1295                       # Number of vector alu accesses
system.cpu.iq.vec_inst_queue_reads               2546                       # Number of vector instruction queue reads
system.cpu.iq.vec_inst_queue_wakeup_accesses         1171                       # Number of vector instruction queue wakeup accesses
system.cpu.iq.vec_inst_queue_writes              1579                       # Number of vector instruction queue writes
system.cpu.itb.accesses                             0                       # DTB accesses
system.cpu.itb.align_faults                         0                       # Number of TLB faults due to alignment restrictions
system.cpu.itb.domain_faults                        0                       # Number of TLB faults due to domain restrictions
system.cpu.itb.flush_entries                        0                       # Number of entries that have been flushed from TLB
system.cpu.itb.flush_tlb                            0                       # Number of times complete TLB was flushed
system.cpu.itb.flush_tlb_asid                       0                       # Number of times TLB was flushed by ASID
system.cpu.itb.flush_tlb_mva                        0                       # Number of times TLB was flushed by MVA
system.cpu.itb.flush_tlb_mva_asid                   0                       # Number of times TLB was flushed by MVA & ASID
system.cpu.itb.hits                                 0                       # DTB hits
system.cpu.itb.inst_accesses                        0                       # ITB inst accesses
system.cpu.itb.inst_hits                            0                       # ITB inst hits
system.cpu.itb.inst_misses                          0                       # ITB inst misses
system.cpu.itb.misses                               0                       # DTB misses
system.cpu.itb.perms_faults                         0                       # Number of TLB faults due to permissions restrictions
system.cpu.itb.prefetch_faults                      0                       # Number of TLB faults due to prefetch
system.cpu.itb.read_accesses                        0                       # DTB read accesses
system.cpu.itb.read_hits                            0                       # DTB read hits
system.cpu.itb.read_misses                          0                       # DTB read misses
system.cpu.itb.stage2_mmu.stage2_tlb.accesses            0                       # DTB accesses
system.cpu.itb.stage2_mmu.stage2_tlb.align_faults            0                       # Number of TLB faults due to alignment restrictions
system.cpu.itb.stage2_mmu.stage2_tlb.domain_faults            0                       # Number of TLB faults due to domain restrictions
system.cpu.itb.stage2_mmu.stage2_tlb.flush_entries            0                       # Number of entries that have been flushed from TLB
system.cpu.itb.stage2_mmu.stage2_tlb.flush_tlb            0                       # Number of times complete TLB was flushed
system.cpu.itb.stage2_mmu.stage2_tlb.flush_tlb_asid            0                       # Number of times TLB was flushed by ASID
system.cpu.itb.stage2_mmu.stage2_tlb.flush_tlb_mva            0                       # Number of times TLB was flushed by MVA
system.cpu.itb.stage2_mmu.stage2_tlb.flush_tlb_mva_asid            0                       # Number of times TLB was flushed by MVA & ASID
system.cpu.itb.stage2_mmu.stage2_tlb.hits            0                       # DTB hits
system.cpu.itb.stage2_mmu.stage2_tlb.inst_accesses            0                       # ITB inst accesses
system.cpu.itb.stage2_mmu.stage2_tlb.inst_hits            0                       # ITB inst hits
system.cpu.itb.stage2_mmu.stage2_tlb.inst_misses            0                       # ITB inst misses
system.cpu.itb.stage2_mmu.stage2_tlb.misses            0                       # DTB misses
system.cpu.itb.stage2_mmu.stage2_tlb.perms_faults            0                       # Number of TLB faults due to permissions restrictions
system.cpu.itb.stage2_mmu.stage2_tlb.prefetch_faults            0                       # Number of TLB faults due to prefetch
system.cpu.itb.stage2_mmu.stage2_tlb.read_accesses            0                       # DTB read accesses
system.cpu.itb.stage2_mmu.stage2_tlb.read_hits            0                       # DTB read hits
system.cpu.itb.stage2_mmu.stage2_tlb.read_misses            0                       # DTB read misses
system.cpu.itb.stage2_mmu.stage2_tlb.walker.walkRequestOrigin_Requested::Data            0                       # Table walker requests started/completed, data/inst
system.cpu.itb.stage2_mmu.stage2_tlb.walker.walkRequestOrigin_Requested::Inst            0                       # Table walker requests started/completed, data/inst
system.cpu.itb.stage2_mmu.stage2_tlb.walker.walkRequestOrigin_Requested::total            0                       # Table walker requests started/completed, data/inst
system.cpu.itb.stage2_mmu.stage2_tlb.walker.walkRequestOrigin_Completed::Data            0                       # Table walker requests started/completed, data/inst
system.cpu.itb.stage2_mmu.stage2_tlb.walker.walkRequestOrigin_Completed::Inst            0                       # Table walker requests started/completed, data/inst
system.cpu.itb.stage2_mmu.stage2_tlb.walker.walkRequestOrigin_Completed::total            0                       # Table walker requests started/completed, data/inst
system.cpu.itb.stage2_mmu.stage2_tlb.walker.walkRequestOrigin::total            0                       # Table walker requests started/completed, data/inst
system.cpu.itb.stage2_mmu.stage2_tlb.walker.walks            0                       # Table walker walks requested
system.cpu.itb.stage2_mmu.stage2_tlb.write_accesses            0                       # DTB write accesses
system.cpu.itb.stage2_mmu.stage2_tlb.write_hits            0                       # DTB write hits
system.cpu.itb.stage2_mmu.stage2_tlb.write_misses            0                       # DTB write misses
system.cpu.itb.walker.walkRequestOrigin_Requested::Data            0                       # Table walker requests started/completed, data/inst
system.cpu.itb.walker.walkRequestOrigin_Requested::Inst            0                       # Table walker requests started/completed, data/inst
system.cpu.itb.walker.walkRequestOrigin_Requested::total            0                       # Table walker requests started/completed, data/inst
system.cpu.itb.walker.walkRequestOrigin_Completed::Data            0                       # Table walker requests started/completed, data/inst
system.cpu.itb.walker.walkRequestOrigin_Completed::Inst            0                       # Table walker requests started/completed, data/inst
system.cpu.itb.walker.walkRequestOrigin_Completed::total            0                       # Table walker requests started/completed, data/inst
system.cpu.itb.walker.walkRequestOrigin::total            0                       # Table walker requests started/completed, data/inst
system.cpu.itb.walker.walks                         0                       # Table walker walks requested
system.cpu.itb.write_accesses                       0                       # DTB write accesses
system.cpu.itb.write_hits                           0                       # DTB write hits
system.cpu.itb.write_misses                         0                       # DTB write misses
system.cpu.memDep0.conflictingLoads              5042                       # Number of conflicting loads.
system.cpu.memDep0.conflictingStores              472                       # Number of conflicting stores.
system.cpu.memDep0.insertedLoads              2767932                       # Number of loads inserted to the mem dependence unit.
system.cpu.memDep0.insertedStores             2263258                       # Number of stores inserted to the mem dependence unit.
system.cpu.misc_regfile_reads                 9197507                       # number of misc regfile reads
system.cpu.misc_regfile_writes                    569                       # number of misc regfile writes
system.cpu.numCycles                         15086860                       # number of cpu cycles simulated
system.cpu.numWorkItemsCompleted                    0                       # number of work items this cpu completed
system.cpu.numWorkItemsStarted                      0                       # number of work items this cpu started
system.cpu.rename.BlockCycles                 4526877                       # Number of cycles rename is blocking
system.cpu.rename.CommittedMaps               9092211                       # Number of HB maps that are committed
system.cpu.rename.IQFullEvents                1315959                       # Number of times rename has blocked due to IQ full
system.cpu.rename.IdleCycles                  1266783                       # Number of cycles rename is idle
system.cpu.rename.ROBFullEvents                    11                       # Number of times rename has blocked due to ROB full
system.cpu.rename.RenameLookups              27411228                       # Number of register rename lookups that rename has made
system.cpu.rename.RenamedInsts               17230159                       # Number of instructions processed by rename
system.cpu.rename.RenamedOperands            15049335                       # Number of destination operands rename has renamed
system.cpu.rename.RunCycles                   2462195                       # Number of cycles rename is running
system.cpu.rename.SQFullEvents                5858253                       # Number of times rename has blocked due to SQ full
system.cpu.rename.SquashCycles                  43543                       # Number of cycles rename is squashing
system.cpu.rename.UnblockCycles               6726150                       # Number of cycles rename is unblocking
system.cpu.rename.UndoneMaps                  5957004                       # Number of HB maps that are undone due to squashing
system.cpu.rename.int_rename_lookups         26662041                       # Number of integer rename lookups
system.cpu.rename.serializeStallCycles          12413                       # count of cycles rename stalled for serializing inst
system.cpu.rename.serializingInsts                377                       # count of serializing insts renamed
system.cpu.rename.skidInsts                   2081950                       # count of insts added to the skid buffer
system.cpu.rename.tempSerializingInsts            227                       # count of temporary serializing insts renamed
system.cpu.rename.vec_rename_lookups             1686                       # Number of vector rename lookups
system.cpu.rob.rob_reads                     28702733                       # The number of ROB reads
system.cpu.rob.rob_writes                    31638304                       # The number of ROB writes
system.cpu.timesIdled                             690                       # Number of times that the entire CPU went into an idle state and unscheduled itself
system.cpu.vec_regfile_reads                     1439                       # number of vector regfile reads
system.cpu.vec_regfile_writes                     638                       # number of vector regfile writes
system.cpu.workload.numSyscalls                    26                       # Number of system calls
system.membus.snoop_filter.hit_multi_requests            0                       # Number of requests hitting in the snoop filter with multiple (>1) holders of the requested data.
system.membus.snoop_filter.hit_multi_snoops            0                       # Number of snoops hitting in the snoop filter with multiple (>1) holders of the requested data.
system.membus.snoop_filter.hit_single_requests       146431                       # Number of requests hitting in the snoop filter with a single holder of the requested data.
system.membus.snoop_filter.hit_single_snoops            0                       # Number of snoops hitting in the snoop filter with a single holder of the requested data.
system.membus.snoop_filter.tot_requests        301898                       # Total number of requests made to the snoop filter.
system.membus.snoop_filter.tot_snoops               0                       # Total number of snoops made to the snoop filter.
system.tol2bus.snoop_filter.hit_multi_requests            1                       # Number of requests hitting in the snoop filter with multiple (>1) holders of the requested data.
system.tol2bus.snoop_filter.hit_multi_snoops            0                       # Number of snoops hitting in the snoop filter with multiple (>1) holders of the requested data.
system.tol2bus.snoop_filter.hit_single_requests       155429                       # Number of requests hitting in the snoop filter with a single holder of the requested data.
system.tol2bus.snoop_filter.hit_single_snoops           16                       # Number of snoops hitting in the snoop filter with a single holder of the requested data.
system.tol2bus.snoop_filter.tot_requests       311424                       # Total number of requests made to the snoop filter.
system.tol2bus.snoop_filter.tot_snoops             16                       # Total number of snoops made to the snoop filter.
system.membus.trans_dist::ReadResp                753                       # Transaction distribution
system.membus.trans_dist::WritebackDirty       146401                       # Transaction distribution
system.membus.trans_dist::CleanEvict               30                       # Transaction distribution
system.membus.trans_dist::ReadExReq            154706                       # Transaction distribution
system.membus.trans_dist::ReadExResp           154704                       # Transaction distribution
system.membus.trans_dist::ReadSharedReq           753                       # Transaction distribution
system.membus.trans_dist::InvalidateReq             8                       # Transaction distribution
system.membus.pkt_count_system.l2.mem_side::system.mem_ctrls.port       457355                       # Packet count per connected master and slave (bytes)
system.membus.pkt_count::total                 457355                       # Packet count per connected master and slave (bytes)
system.membus.pkt_size_system.l2.mem_side::system.mem_ctrls.port     19318912                       # Cumulative packet size per connected master and slave (bytes)
system.membus.pkt_size::total                19318912                       # Cumulative packet size per connected master and slave (bytes)
system.membus.snoops                                0                       # Total snoops (count)
system.membus.snoopTraffic                          0                       # Total snoop traffic (bytes)
system.membus.snoop_fanout::samples            155467                       # Request fanout histogram
system.membus.snoop_fanout::mean                    0                       # Request fanout histogram
system.membus.snoop_fanout::stdev                   0                       # Request fanout histogram
system.membus.snoop_fanout::underflows              0      0.00%      0.00% # Request fanout histogram
system.membus.snoop_fanout::0                  155467    100.00%    100.00% # Request fanout histogram
system.membus.snoop_fanout::1                       0      0.00%    100.00% # Request fanout histogram
system.membus.snoop_fanout::overflows               0      0.00%    100.00% # Request fanout histogram
system.membus.snoop_fanout::min_value               0                       # Request fanout histogram
system.membus.snoop_fanout::max_value               0                       # Request fanout histogram
system.membus.snoop_fanout::total              155467                       # Request fanout histogram
system.membus.reqLayer0.occupancy           901477000                       # Layer occupancy (ticks)
system.membus.reqLayer0.utilization              12.0                       # Layer utilization (%)
system.membus.respLayer1.occupancy          812184500                       # Layer occupancy (ticks)
system.membus.respLayer1.utilization             10.8                       # Layer utilization (%)
system.membus.power_state.pwrStateResidencyTicks::UNDEFINED   7543429500                       # Cumulative time (in ticks) in various power states
system.tol2bus.trans_dist::ReadResp              1280                       # Transaction distribution
system.tol2bus.trans_dist::WritebackDirty       300931                       # Transaction distribution
system.tol2bus.trans_dist::WritebackClean          891                       # Transaction distribution
system.tol2bus.trans_dist::CleanEvict              54                       # Transaction distribution
system.tol2bus.trans_dist::ReadExReq           154707                       # Transaction distribution
system.tol2bus.trans_dist::ReadExResp          154705                       # Transaction distribution
system.tol2bus.trans_dist::ReadCleanReq          1140                       # Transaction distribution
system.tol2bus.trans_dist::ReadSharedReq          140                       # Transaction distribution
system.tol2bus.trans_dist::InvalidateReq            8                       # Transaction distribution
system.tol2bus.trans_dist::InvalidateResp            8                       # Transaction distribution
system.tol2bus.pkt_count_system.cpu.icache.mem_side::system.l2.cpu_side         3171                       # Packet count per connected master and slave (bytes)
system.tol2bus.pkt_count_system.cpu.dcache.mem_side::system.l2.cpu_side       464246                       # Packet count per connected master and slave (bytes)
system.tol2bus.pkt_count::total                467417                       # Packet count per connected master and slave (bytes)
system.tol2bus.pkt_size_system.cpu.icache.mem_side::system.l2.cpu_side       129984                       # Cumulative packet size per connected master and slave (bytes)
system.tol2bus.pkt_size_system.cpu.dcache.mem_side::system.l2.cpu_side     19800000                       # Cumulative packet size per connected master and slave (bytes)
system.tol2bus.pkt_size::total               19929984                       # Cumulative packet size per connected master and slave (bytes)
system.tol2bus.snoops                          146447                       # Total snoops (count)
system.tol2bus.snoopTraffic                   9369664                       # Total snoop traffic (bytes)
system.tol2bus.snoop_fanout::samples           302442                       # Request fanout histogram
system.tol2bus.snoop_fanout::mean            0.000056                       # Request fanout histogram
system.tol2bus.snoop_fanout::stdev           0.007497                       # Request fanout histogram
system.tol2bus.snoop_fanout::underflows             0      0.00%      0.00% # Request fanout histogram
system.tol2bus.snoop_fanout::0                 302425     99.99%     99.99% # Request fanout histogram
system.tol2bus.snoop_fanout::1                     17      0.01%    100.00% # Request fanout histogram
system.tol2bus.snoop_fanout::2                      0      0.00%    100.00% # Request fanout histogram
system.tol2bus.snoop_fanout::overflows              0      0.00%    100.00% # Request fanout histogram
system.tol2bus.snoop_fanout::min_value              0                       # Request fanout histogram
system.tol2bus.snoop_fanout::max_value              1                       # Request fanout histogram
system.tol2bus.snoop_fanout::total             302442                       # Request fanout histogram
system.tol2bus.reqLayer0.occupancy          311133000                       # Layer occupancy (ticks)
system.tol2bus.reqLayer0.utilization              4.1                       # Layer utilization (%)
system.tol2bus.respLayer1.occupancy         232271500                       # Layer occupancy (ticks)
system.tol2bus.respLayer1.utilization             3.1                       # Layer utilization (%)
system.tol2bus.respLayer0.occupancy           1710000                       # Layer occupancy (ticks)
system.tol2bus.respLayer0.utilization             0.0                       # Layer utilization (%)
system.tol2bus.power_state.pwrStateResidencyTicks::UNDEFINED   7543429500                       # Cumulative time (in ticks) in various power states
system.voltage_domain.voltage                       1                       # Voltage in Volts
system.clk_domain.clock                          1000                       # Clock period in ticks
system.l2.demand_hits::.cpu.inst                  527                       # number of demand (read+write) hits
system.l2.demand_hits::.cpu.data                    1                       # number of demand (read+write) hits
system.l2.demand_hits::total                      528                       # number of demand (read+write) hits
system.l2.overall_hits::.cpu.inst                 527                       # number of overall hits
system.l2.overall_hits::.cpu.data                   1                       # number of overall hits
system.l2.overall_hits::total                     528                       # number of overall hits
system.l2.demand_misses::.cpu.inst                613                       # number of demand (read+write) misses
system.l2.demand_misses::.cpu.data             154846                       # number of demand (read+write) misses
system.l2.demand_misses::total                 155459                       # number of demand (read+write) misses
system.l2.overall_misses::.cpu.inst               613                       # number of overall misses
system.l2.overall_misses::.cpu.data            154846                       # number of overall misses
system.l2.overall_misses::total                155459                       # number of overall misses
system.l2.demand_miss_latency::.cpu.inst     48006500                       # number of demand (read+write) miss cycles
system.l2.demand_miss_latency::.cpu.data  13537702500                       # number of demand (read+write) miss cycles
system.l2.demand_miss_latency::total      13585709000                       # number of demand (read+write) miss cycles
system.l2.overall_miss_latency::.cpu.inst     48006500                       # number of overall miss cycles
system.l2.overall_miss_latency::.cpu.data  13537702500                       # number of overall miss cycles
system.l2.overall_miss_latency::total     13585709000                       # number of overall miss cycles
system.l2.demand_accesses::.cpu.inst             1140                       # number of demand (read+write) accesses
system.l2.demand_accesses::.cpu.data           154847                       # number of demand (read+write) accesses
system.l2.demand_accesses::total               155987                       # number of demand (read+write) accesses
system.l2.overall_accesses::.cpu.inst            1140                       # number of overall (read+write) accesses
system.l2.overall_accesses::.cpu.data          154847                       # number of overall (read+write) accesses
system.l2.overall_accesses::total              155987                       # number of overall (read+write) accesses
system.l2.demand_miss_rate::.cpu.inst        0.537719                       # miss rate for demand accesses
system.l2.demand_miss_rate::.cpu.data        0.999994                       # miss rate for demand accesses
system.l2.demand_miss_rate::total            0.996615                       # miss rate for demand accesses
system.l2.overall_miss_rate::.cpu.inst       0.537719                       # miss rate for overall accesses
system.l2.overall_miss_rate::.cpu.data       0.999994                       # miss rate for overall accesses
system.l2.overall_miss_rate::total           0.996615                       # miss rate for overall accesses
system.l2.demand_avg_miss_latency::.cpu.inst 78314.029364                       # average overall miss latency
system.l2.demand_avg_miss_latency::.cpu.data 87426.878964                       # average overall miss latency
system.l2.demand_avg_miss_latency::total 87390.945523                       # average overall miss latency
system.l2.overall_avg_miss_latency::.cpu.inst 78314.029364                       # average overall miss latency
system.l2.overall_avg_miss_latency::.cpu.data 87426.878964                       # average overall miss latency
system.l2.overall_avg_miss_latency::total 87390.945523                       # average overall miss latency
system.l2.blocked_cycles::no_mshrs                  0                       # number of cycles access was blocked
system.l2.blocked_cycles::no_targets                0                       # number of cycles access was blocked
system.l2.blocked::no_mshrs                         0                       # number of cycles access was blocked
system.l2.blocked::no_targets                       0                       # number of cycles access was blocked
system.l2.avg_blocked_cycles::no_mshrs            nan                       # average number of cycles each access was blocked
system.l2.avg_blocked_cycles::no_targets          nan                       # average number of cycles each access was blocked
system.l2.writebacks::.writebacks              146401                       # number of writebacks
system.l2.writebacks::total                    146401                       # number of writebacks
system.l2.demand_mshr_misses::.cpu.inst           613                       # number of demand (read+write) MSHR misses
system.l2.demand_mshr_misses::.cpu.data        154846                       # number of demand (read+write) MSHR misses
system.l2.demand_mshr_misses::total            155459                       # number of demand (read+write) MSHR misses
system.l2.overall_mshr_misses::.cpu.inst          613                       # number of overall MSHR misses
system.l2.overall_mshr_misses::.cpu.data       154846                       # number of overall MSHR misses
system.l2.overall_mshr_misses::total           155459                       # number of overall MSHR misses
system.l2.demand_mshr_miss_latency::.cpu.inst     41876500                       # number of demand (read+write) MSHR miss cycles
system.l2.demand_mshr_miss_latency::.cpu.data  11989262500                       # number of demand (read+write) MSHR miss cycles
system.l2.demand_mshr_miss_latency::total  12031139000                       # number of demand (read+write) MSHR miss cycles
system.l2.overall_mshr_miss_latency::.cpu.inst     41876500                       # number of overall MSHR miss cycles
system.l2.overall_mshr_miss_latency::.cpu.data  11989262500                       # number of overall MSHR miss cycles
system.l2.overall_mshr_miss_latency::total  12031139000                       # number of overall MSHR miss cycles
system.l2.demand_mshr_miss_rate::.cpu.inst     0.537719                       # mshr miss rate for demand accesses
system.l2.demand_mshr_miss_rate::.cpu.data     0.999994                       # mshr miss rate for demand accesses
system.l2.demand_mshr_miss_rate::total       0.996615                       # mshr miss rate for demand accesses
system.l2.overall_mshr_miss_rate::.cpu.inst     0.537719                       # mshr miss rate for overall accesses
system.l2.overall_mshr_miss_rate::.cpu.data     0.999994                       # mshr miss rate for overall accesses
system.l2.overall_mshr_miss_rate::total      0.996615                       # mshr miss rate for overall accesses
system.l2.demand_avg_mshr_miss_latency::.cpu.inst 68314.029364                       # average overall mshr miss latency
system.l2.demand_avg_mshr_miss_latency::.cpu.data 77427.008124                       # average overall mshr miss latency
system.l2.demand_avg_mshr_miss_latency::total 77391.074174                       # average overall mshr miss latency
system.l2.overall_avg_mshr_miss_latency::.cpu.inst 68314.029364                       # average overall mshr miss latency
system.l2.overall_avg_mshr_miss_latency::.cpu.data 77427.008124                       # average overall mshr miss latency
system.l2.overall_avg_mshr_miss_latency::total 77391.074174                       # average overall mshr miss latency
system.l2.replacements                         146447                       # number of replacements
system.l2.WritebackDirty_hits::.writebacks       154530                       # number of WritebackDirty hits
system.l2.WritebackDirty_hits::total           154530                       # number of WritebackDirty hits
system.l2.WritebackDirty_accesses::.writebacks       154530                       # number of WritebackDirty accesses(hits+misses)
system.l2.WritebackDirty_accesses::total       154530                       # number of WritebackDirty accesses(hits+misses)
system.l2.WritebackClean_hits::.writebacks          890                       # number of WritebackClean hits
system.l2.WritebackClean_hits::total              890                       # number of WritebackClean hits
system.l2.WritebackClean_accesses::.writebacks          890                       # number of WritebackClean accesses(hits+misses)
system.l2.WritebackClean_accesses::total          890                       # number of WritebackClean accesses(hits+misses)
system.l2.ReadExReq_hits::.cpu.data                 1                       # number of ReadExReq hits
system.l2.ReadExReq_hits::total                     1                       # number of ReadExReq hits
system.l2.ReadExReq_misses::.cpu.data          154706                       # number of ReadExReq misses
system.l2.ReadExReq_misses::total              154706                       # number of ReadExReq misses
system.l2.ReadExReq_miss_latency::.cpu.data  13525870000                       # number of ReadExReq miss cycles
system.l2.ReadExReq_miss_latency::total   13525870000                       # number of ReadExReq miss cycles
system.l2.ReadExReq_accesses::.cpu.data        154707                       # number of ReadExReq accesses(hits+misses)
system.l2.ReadExReq_accesses::total            154707                       # number of ReadExReq accesses(hits+misses)
system.l2.ReadExReq_miss_rate::.cpu.data     0.999994                       # miss rate for ReadExReq accesses
system.l2.ReadExReq_miss_rate::total         0.999994                       # miss rate for ReadExReq accesses
system.l2.ReadExReq_avg_miss_latency::.cpu.data 87429.511460                       # average ReadExReq miss latency
system.l2.ReadExReq_avg_miss_latency::total 87429.511460                       # average ReadExReq miss latency
system.l2.ReadExReq_mshr_misses::.cpu.data       154706                       # number of ReadExReq MSHR misses
system.l2.ReadExReq_mshr_misses::total         154706                       # number of ReadExReq MSHR misses
system.l2.ReadExReq_mshr_miss_latency::.cpu.data  11978830000                       # number of ReadExReq MSHR miss cycles
system.l2.ReadExReq_mshr_miss_latency::total  11978830000                       # number of ReadExReq MSHR miss cycles
system.l2.ReadExReq_mshr_miss_rate::.cpu.data     0.999994                       # mshr miss rate for ReadExReq accesses
system.l2.ReadExReq_mshr_miss_rate::total     0.999994                       # mshr miss rate for ReadExReq accesses
system.l2.ReadExReq_avg_mshr_miss_latency::.cpu.data 77429.640738                       # average ReadExReq mshr miss latency
system.l2.ReadExReq_avg_mshr_miss_latency::total 77429.640738                       # average ReadExReq mshr miss latency
system.l2.ReadCleanReq_hits::.cpu.inst            527                       # number of ReadCleanReq hits
system.l2.ReadCleanReq_hits::total                527                       # number of ReadCleanReq hits
system.l2.ReadCleanReq_misses::.cpu.inst          613                       # number of ReadCleanReq misses
system.l2.ReadCleanReq_misses::total              613                       # number of ReadCleanReq misses
system.l2.ReadCleanReq_miss_latency::.cpu.inst     48006500                       # number of ReadCleanReq miss cycles
system.l2.ReadCleanReq_miss_latency::total     48006500                       # number of ReadCleanReq miss cycles
system.l2.ReadCleanReq_accesses::.cpu.inst         1140                       # number of ReadCleanReq accesses(hits+misses)
system.l2.ReadCleanReq_accesses::total           1140                       # number of ReadCleanReq accesses(hits+misses)
system.l2.ReadCleanReq_miss_rate::.cpu.inst     0.537719                       # miss rate for ReadCleanReq accesses
system.l2.ReadCleanReq_miss_rate::total      0.537719                       # miss rate for ReadCleanReq accesses
system.l2.ReadCleanReq_avg_miss_latency::.cpu.inst 78314.029364                       # average ReadCleanReq miss latency
system.l2.ReadCleanReq_avg_miss_latency::total 78314.029364                       # average ReadCleanReq miss latency
system.l2.ReadCleanReq_mshr_misses::.cpu.inst          613                       # number of ReadCleanReq MSHR misses
system.l2.ReadCleanReq_mshr_misses::total          613                       # number of ReadCleanReq MSHR misses
[...]
system.cpu.dcache.overall_misses::total       1314766                       # number of overall misses
system.cpu.dcache.demand_miss_latency::.cpu.data 106401070500                       # number of demand (read+write) miss cycles
system.cpu.dcache.demand_miss_latency::total 106401070500                       # number of demand (read+write) miss cycles
system.cpu.dcache.overall_miss_latency::.cpu.data 106401070500                       # number of overall miss cycles
system.cpu.dcache.overall_miss_latency::total 106401070500                       # number of overall miss cycles
system.cpu.dcache.demand_accesses::.cpu.data      4071110                       # number of demand (read+write) accesses
system.cpu.dcache.demand_accesses::total      4071110                       # number of demand (read+write) accesses
system.cpu.dcache.overall_accesses::.cpu.data      4071166                       # number of overall (read+write) accesses
system.cpu.dcache.overall_accesses::total      4071166                       # number of overall (read+write) accesses
system.cpu.dcache.demand_miss_rate::.cpu.data     0.322949                       # miss rate for demand accesses
system.cpu.dcache.demand_miss_rate::total     0.322949                       # miss rate for demand accesses
system.cpu.dcache.overall_miss_rate::.cpu.data     0.322946                       # miss rate for overall accesses
system.cpu.dcache.overall_miss_rate::total     0.322946                       # miss rate for overall accesses
system.cpu.dcache.demand_avg_miss_latency::.cpu.data 80928.008643                       # average overall miss latency
system.cpu.dcache.demand_avg_miss_latency::total 80928.008643                       # average overall miss latency
system.cpu.dcache.overall_avg_miss_latency::.cpu.data 80927.762431                       # average overall miss latency
system.cpu.dcache.overall_avg_miss_latency::total 80927.762431                       # average overall miss latency
system.cpu.dcache.blocked_cycles::no_mshrs            0                       # number of cycles access was blocked
system.cpu.dcache.blocked_cycles::no_targets            0                       # number of cycles access was blocked
system.cpu.dcache.blocked::no_mshrs                 0                       # number of cycles access was blocked
system.cpu.dcache.blocked::no_targets               0                       # number of cycles access was blocked
system.cpu.dcache.avg_blocked_cycles::no_mshrs          nan                       # average number of cycles each access was blocked
system.cpu.dcache.avg_blocked_cycles::no_targets          nan                       # average number of cycles each access was blocked
system.cpu.dcache.writebacks::.writebacks       154530                       # number of writebacks
system.cpu.dcache.writebacks::total            154530                       # number of writebacks
system.cpu.dcache.demand_mshr_hits::.cpu.data      1159911                       # number of demand (read+write) MSHR hits
system.cpu.dcache.demand_mshr_hits::total      1159911                       # number of demand (read+write) MSHR hits
system.cpu.dcache.overall_mshr_hits::.cpu.data      1159911                       # number of overall MSHR hits
system.cpu.dcache.overall_mshr_hits::total      1159911                       # number of overall MSHR hits
system.cpu.dcache.demand_mshr_misses::.cpu.data       154851                       # number of demand (read+write) MSHR misses
system.cpu.dcache.demand_mshr_misses::total       154851                       # number of demand (read+write) MSHR misses
system.cpu.dcache.overall_mshr_misses::.cpu.data       154854                       # number of overall MSHR misses
system.cpu.dcache.overall_mshr_misses::total       154854                       # number of overall MSHR misses
system.cpu.dcache.demand_mshr_miss_latency::.cpu.data  13769914500                       # number of demand (read+write) MSHR miss cycles
system.cpu.dcache.demand_mshr_miss_latency::total  13769914500                       # number of demand (read+write) MSHR miss cycles
system.cpu.dcache.overall_mshr_miss_latency::.cpu.data  13770148500                       # number of overall MSHR miss cycles
system.cpu.dcache.overall_mshr_miss_latency::total  13770148500                       # number of overall MSHR miss cycles
system.cpu.dcache.demand_mshr_miss_rate::.cpu.data     0.038037                       # mshr miss rate for demand accesses
system.cpu.dcache.demand_mshr_miss_rate::total     0.038037                       # mshr miss rate for demand accesses
system.cpu.dcache.overall_mshr_miss_rate::.cpu.data     0.038037                       # mshr miss rate for overall accesses
system.cpu.dcache.overall_mshr_miss_rate::total     0.038037                       # mshr miss rate for overall accesses
system.cpu.dcache.demand_avg_mshr_miss_latency::.cpu.data 88923.639499                       # average overall mshr miss latency
system.cpu.dcache.demand_avg_mshr_miss_latency::total 88923.639499                       # average overall mshr miss latency
system.cpu.dcache.overall_avg_mshr_miss_latency::.cpu.data 88923.427874                       # average overall mshr miss latency
system.cpu.dcache.overall_avg_mshr_miss_latency::total 88923.427874                       # average overall mshr miss latency
system.cpu.dcache.replacements                 154538                       # number of replacements
system.cpu.dcache.ReadReq_hits::.cpu.data      2751025                       # number of ReadReq hits
system.cpu.dcache.ReadReq_hits::total         2751025                       # number of ReadReq hits
system.cpu.dcache.ReadReq_misses::.cpu.data          300                       # number of ReadReq misses
system.cpu.dcache.ReadReq_misses::total           300                       # number of ReadReq misses
system.cpu.dcache.ReadReq_miss_latency::.cpu.data     23250500                       # number of ReadReq miss cycles
system.cpu.dcache.ReadReq_miss_latency::total     23250500                       # number of ReadReq miss cycles
system.cpu.dcache.ReadReq_accesses::.cpu.data      2751325                       # number of ReadReq accesses(hits+misses)
system.cpu.dcache.ReadReq_accesses::total      2751325                       # number of ReadReq accesses(hits+misses)
system.cpu.dcache.ReadReq_miss_rate::.cpu.data     0.000109                       # miss rate for ReadReq accesses
system.cpu.dcache.ReadReq_miss_rate::total     0.000109                       # miss rate for ReadReq accesses
system.cpu.dcache.ReadReq_avg_miss_latency::.cpu.data 77501.666667                       # average ReadReq miss latency
system.cpu.dcache.ReadReq_avg_miss_latency::total 77501.666667                       # average ReadReq miss latency
system.cpu.dcache.ReadReq_mshr_hits::.cpu.data          164                       # number of ReadReq MSHR hits
system.cpu.dcache.ReadReq_mshr_hits::total          164                       # number of ReadReq MSHR hits
system.cpu.dcache.ReadReq_mshr_misses::.cpu.data          136                       # number of ReadReq MSHR misses
system.cpu.dcache.ReadReq_mshr_misses::total          136                       # number of ReadReq MSHR misses
system.cpu.dcache.ReadReq_mshr_miss_latency::.cpu.data     11726000                       # number of ReadReq MSHR miss cycles
system.cpu.dcache.ReadReq_mshr_miss_latency::total     11726000                       # number of ReadReq MSHR miss cycles
system.cpu.dcache.ReadReq_mshr_miss_rate::.cpu.data     0.000049                       # mshr miss rate for ReadReq accesses
system.cpu.dcache.ReadReq_mshr_miss_rate::total     0.000049                       # mshr miss rate for ReadReq accesses
system.cpu.dcache.ReadReq_avg_mshr_miss_latency::.cpu.data 86220.588235                       # average ReadReq mshr miss latency
system.cpu.dcache.ReadReq_avg_mshr_miss_latency::total 86220.588235                       # average ReadReq mshr miss latency
system.cpu.dcache.WriteReq_hits::.cpu.data         5323                       # number of WriteReq hits
system.cpu.dcache.WriteReq_hits::total           5323                       # number of WriteReq hits
system.cpu.dcache.WriteReq_misses::.cpu.data      1314455                       # number of WriteReq misses
system.cpu.dcache.WriteReq_misses::total      1314455                       # number of WriteReq misses
system.cpu.dcache.WriteReq_miss_latency::.cpu.data 106377596500                       # number of WriteReq miss cycles
system.cpu.dcache.WriteReq_miss_latency::total 106377596500                       # number of WriteReq miss cycles
system.cpu.dcache.WriteReq_accesses::.cpu.data      1319778                       # number of WriteReq accesses(hits+misses)
system.cpu.dcache.WriteReq_accesses::total      1319778                       # number of WriteReq accesses(hits+misses)
system.cpu.dcache.WriteReq_miss_rate::.cpu.data     0.995967                       # miss rate for WriteReq accesses
system.cpu.dcache.WriteReq_miss_rate::total     0.995967                       # miss rate for WriteReq accesses
system.cpu.dcache.WriteReq_avg_miss_latency::.cpu.data 80929.051584                       # average WriteReq miss latency
system.cpu.dcache.WriteReq_avg_miss_latency::total 80929.051584                       # average WriteReq miss latency
system.cpu.dcache.WriteReq_mshr_hits::.cpu.data      1159747                       # number of WriteReq MSHR hits
system.cpu.dcache.WriteReq_mshr_hits::total      1159747                       # number of WriteReq MSHR hits
system.cpu.dcache.WriteReq_mshr_misses::.cpu.data       154708                       # number of WriteReq MSHR misses
system.cpu.dcache.WriteReq_mshr_misses::total       154708                       # number of WriteReq MSHR misses
system.cpu.dcache.WriteReq_mshr_miss_latency::.cpu.data  13757972000                       # number of WriteReq MSHR miss cycles
system.cpu.dcache.WriteReq_mshr_miss_latency::total  13757972000                       # number of WriteReq MSHR miss cycles
system.cpu.dcache.WriteReq_mshr_miss_rate::.cpu.data     0.117223                       # mshr miss rate for WriteReq accesses
system.cpu.dcache.WriteReq_mshr_miss_rate::total     0.117223                       # mshr miss rate for WriteReq accesses
system.cpu.dcache.WriteReq_avg_mshr_miss_latency::.cpu.data 88928.639760                       # average WriteReq mshr miss latency
system.cpu.dcache.WriteReq_avg_mshr_miss_latency::total 88928.639760                       # average WriteReq mshr miss latency
system.cpu.dcache.SoftPFReq_hits::.cpu.data           52                       # number of SoftPFReq hits
system.cpu.dcache.SoftPFReq_hits::total            52                       # number of SoftPFReq hits
system.cpu.dcache.SoftPFReq_misses::.cpu.data            4                       # number of SoftPFReq misses
system.cpu.dcache.SoftPFReq_misses::total            4                       # number of SoftPFReq misses
system.cpu.dcache.SoftPFReq_accesses::.cpu.data           56                       # number of SoftPFReq accesses(hits+misses)
system.cpu.dcache.SoftPFReq_accesses::total           56                       # number of SoftPFReq accesses(hits+misses)
system.cpu.dcache.SoftPFReq_miss_rate::.cpu.data     0.071429                       # miss rate for SoftPFReq accesses
system.cpu.dcache.SoftPFReq_miss_rate::total     0.071429                       # miss rate for SoftPFReq accesses
system.cpu.dcache.SoftPFReq_mshr_misses::.cpu.data            3                       # number of SoftPFReq MSHR misses
system.cpu.dcache.SoftPFReq_mshr_misses::total            3                       # number of SoftPFReq MSHR misses
system.cpu.dcache.SoftPFReq_mshr_miss_latency::.cpu.data       234000                       # number of SoftPFReq MSHR miss cycles
system.cpu.dcache.SoftPFReq_mshr_miss_latency::total       234000                       # number of SoftPFReq MSHR miss cycles
system.cpu.dcache.SoftPFReq_mshr_miss_rate::.cpu.data     0.053571                       # mshr miss rate for SoftPFReq accesses
system.cpu.dcache.SoftPFReq_mshr_miss_rate::total     0.053571                       # mshr miss rate for SoftPFReq accesses
system.cpu.dcache.SoftPFReq_avg_mshr_miss_latency::.cpu.data        78000                       # average SoftPFReq mshr miss latency
system.cpu.dcache.SoftPFReq_avg_mshr_miss_latency::total        78000                       # average SoftPFReq mshr miss latency
system.cpu.dcache.WriteLineReq_misses::.cpu.data            7                       # number of WriteLineReq misses
system.cpu.dcache.WriteLineReq_misses::total            7                       # number of WriteLineReq misses
system.cpu.dcache.WriteLineReq_miss_latency::.cpu.data       223500                       # number of WriteLineReq miss cycles
system.cpu.dcache.WriteLineReq_miss_latency::total       223500                       # number of WriteLineReq miss cycles
system.cpu.dcache.WriteLineReq_accesses::.cpu.data            7                       # number of WriteLineReq accesses(hits+misses)
system.cpu.dcache.WriteLineReq_accesses::total            7                       # number of WriteLineReq accesses(hits+misses)
system.cpu.dcache.WriteLineReq_miss_rate::.cpu.data            1                       # miss rate for WriteLineReq accesses
system.cpu.dcache.WriteLineReq_miss_rate::total            1                       # miss rate for WriteLineReq accesses
system.cpu.dcache.WriteLineReq_avg_miss_latency::.cpu.data 31928.571429                       # average WriteLineReq miss latency
system.cpu.dcache.WriteLineReq_avg_miss_latency::total 31928.571429                       # average WriteLineReq miss latency
system.cpu.dcache.WriteLineReq_mshr_misses::.cpu.data            7                       # number of WriteLineReq MSHR misses
system.cpu.dcache.WriteLineReq_mshr_misses::total            7                       # number of WriteLineReq MSHR misses
system.cpu.dcache.WriteLineReq_mshr_miss_latency::.cpu.data       216500                       # number of WriteLineReq MSHR miss cycles
system.cpu.dcache.WriteLineReq_mshr_miss_latency::total       216500                       # number of WriteLineReq MSHR miss cycles
system.cpu.dcache.WriteLineReq_mshr_miss_rate::.cpu.data            1                       # mshr miss rate for WriteLineReq accesses
system.cpu.dcache.WriteLineReq_mshr_miss_rate::total            1                       # mshr miss rate for WriteLineReq accesses
system.cpu.dcache.WriteLineReq_avg_mshr_miss_latency::.cpu.data 30928.571429                       # average WriteLineReq mshr miss latency
system.cpu.dcache.WriteLineReq_avg_mshr_miss_latency::total 30928.571429                       # average WriteLineReq mshr miss latency
system.cpu.dcache.LoadLockedReq_hits::.cpu.data          168                       # number of LoadLockedReq hits
system.cpu.dcache.LoadLockedReq_hits::total          168                       # number of LoadLockedReq hits
system.cpu.dcache.LoadLockedReq_misses::.cpu.data            1                       # number of LoadLockedReq misses
system.cpu.dcache.LoadLockedReq_misses::total            1                       # number of LoadLockedReq misses
system.cpu.dcache.LoadLockedReq_miss_latency::.cpu.data        87500                       # number of LoadLockedReq miss cycles
system.cpu.dcache.LoadLockedReq_miss_latency::total        87500                       # number of LoadLockedReq miss cycles
system.cpu.dcache.LoadLockedReq_accesses::.cpu.data          169                       # number of LoadLockedReq accesses(hits+misses)
system.cpu.dcache.LoadLockedReq_accesses::total          169                       # number of LoadLockedReq accesses(hits+misses)
system.cpu.dcache.LoadLockedReq_miss_rate::.cpu.data     0.005917                       # miss rate for LoadLockedReq accesses
system.cpu.dcache.LoadLockedReq_miss_rate::total     0.005917                       # miss rate for LoadLockedReq accesses
system.cpu.dcache.LoadLockedReq_avg_miss_latency::.cpu.data        87500                       # average LoadLockedReq miss latency
system.cpu.dcache.LoadLockedReq_avg_miss_latency::total        87500                       # average LoadLockedReq miss latency
system.cpu.dcache.LoadLockedReq_mshr_misses::.cpu.data            1                       # number of LoadLockedReq MSHR misses
system.cpu.dcache.LoadLockedReq_mshr_misses::total            1                       # number of LoadLockedReq MSHR misses
system.cpu.dcache.LoadLockedReq_mshr_miss_latency::.cpu.data        86500                       # number of LoadLockedReq MSHR miss cycles
system.cpu.dcache.LoadLockedReq_mshr_miss_latency::total        86500                       # number of LoadLockedReq MSHR miss cycles
system.cpu.dcache.LoadLockedReq_mshr_miss_rate::.cpu.data     0.005917                       # mshr miss rate for LoadLockedReq accesses
system.cpu.dcache.LoadLockedReq_mshr_miss_rate::total     0.005917                       # mshr miss rate for LoadLockedReq accesses
system.cpu.dcache.LoadLockedReq_avg_mshr_miss_latency::.cpu.data        86500                       # average LoadLockedReq mshr miss latency
system.cpu.dcache.LoadLockedReq_avg_mshr_miss_latency::total        86500                       # average LoadLockedReq mshr miss latency
system.cpu.dcache.StoreCondReq_hits::.cpu.data          142                       # number of StoreCondReq hits
system.cpu.dcache.StoreCondReq_hits::total          142                       # number of StoreCondReq hits
system.cpu.dcache.StoreCondReq_accesses::.cpu.data          142                       # number of StoreCondReq accesses(hits+misses)
system.cpu.dcache.StoreCondReq_accesses::total          142                       # number of StoreCondReq accesses(hits+misses)
system.cpu.dcache.power_state.pwrStateResidencyTicks::UNDEFINED   7543429500                       # Cumulative time (in ticks) in various power states
system.cpu.dcache.tags.tagsinuse           314.124062                       # Cycle average of tags in use
system.cpu.dcache.tags.total_refs             2911563                       # Total number of references to valid blocks.
system.cpu.dcache.tags.sampled_refs            154853                       # Sample count of references to valid blocks.
system.cpu.dcache.tags.avg_refs             18.802109                       # Average number of references to valid blocks.
system.cpu.dcache.tags.warmup_cycle            249500                       # Cycle when the warmup percentage was hit.
system.cpu.dcache.tags.occ_blocks::.cpu.data   314.124062                       # Average occupied blocks per requestor
system.cpu.dcache.tags.occ_percent::.cpu.data     0.306762                       # Average percentage of cache occupancy
system.cpu.dcache.tags.occ_percent::total     0.306762                       # Average percentage of cache occupancy
system.cpu.dcache.tags.occ_task_id_blocks::1024          315                       # Occupied blocks per task id
system.cpu.dcache.tags.age_task_id_blocks_1024::0           64                       # Occupied blocks per task id
system.cpu.dcache.tags.age_task_id_blocks_1024::3          251                       # Occupied blocks per task id
system.cpu.dcache.tags.occ_task_id_percent::1024     0.307617                       # Percentage of cache occupancy per task id
system.cpu.dcache.tags.tag_accesses           8297807                       # Number of tag accesses
system.cpu.dcache.tags.data_accesses          8297807                       # Number of data accesses
system.cpu.dcache.tags.power_state.pwrStateResidencyTicks::UNDEFINED   7543429500                       # Cumulative time (in ticks) in various power states
system.cpu.power_state.pwrStateResidencyTicks::ON   7543429500                       # Cumulative time (in ticks) in various power states

---------- End Simulation Statistics   ----------
