
---------- Begin Simulation Statistics ----------
final_tick                                 1765830000                       # Number of ticks from beginning of simulation (restored from checkpoints and never reset)
host_inst_rate                                  96631                       # Simulator instruction rate (inst/s)
host_mem_usage                                 870464                       # Number of bytes of host memory used
host_op_rate                                   111544                       # Simulator op (including micro ops) rate (op/s)
host_seconds                                    29.32                       # Real time elapsed on the host
host_tick_rate                               60228382                       # Simulator tick rate (ticks/s)
sim_freq                                 1000000000000                       # Frequency of simulated ticks
sim_insts                                     2833100                       # Number of instructions simulated
sim_ops                                       3270344                       # Number of ops (including micro ops) simulated
sim_seconds                                  0.001766                       # Number of seconds simulated
sim_ticks                                  1765830000                       # Number of ticks simulated
system.cpu.branchPred.BTBCorrect                    0                       # Number of correct BTB predictions (this stat may not work properly.
system.cpu.branchPred.BTBHitPct             98.514031                       # BTB Hit Percentage
system.cpu.branchPred.BTBHits                  299526                       # Number of BTB hits
system.cpu.branchPred.BTBLookups               304044                       # Number of BTB lookups
system.cpu.branchPred.RASInCorrect                  5                       # Number of incorrect RAS predictions.
system.cpu.branchPred.condIncorrect              7306                       # Number of conditional branches incorrect
system.cpu.branchPred.condPredicted            530100                       # Number of conditional branches predicted
system.cpu.branchPred.indirectHits               1195                       # Number of indirect target hits.
system.cpu.branchPred.indirectLookups            1603                       # Number of indirect predictor lookups.
system.cpu.branchPred.indirectMisses              408                       # Number of indirect misses.
system.cpu.branchPred.lookups                  654839                       # Number of BP lookups
system.cpu.branchPred.usedRAS                   36891                       # Number of times the RAS was used to get a target.
system.cpu.branchPredindirectMispredicted          148                       # Number of mispredicted indirect branches.
system.cpu.cc_regfile_reads                    987687                       # number of cc regfile reads
system.cpu.cc_regfile_writes                   981395                       # number of cc regfile writes
system.cpu.commit.amos                              0                       # Number of atomic instructions committed
system.cpu.commit.branchMispredicts              5893                       # The number of times a branch was mispredicted
system.cpu.commit.branches                     559313                       # Number of branches committed
system.cpu.commit.bw_lim_events                159195                       # number cycles where commit BW limit reached
system.cpu.commit.commitNonSpecStalls             388                       # The number of times commit has been forced to stall to communicate backwards
system.cpu.commit.commitSquashedInsts          268394                       # The number of squashed insts skipped by commit
system.cpu.commit.committedInsts              2845009                       # Number of instructions committed
system.cpu.commit.committedOps                3282253                       # Number of ops (including micro ops) committed
system.cpu.commit.committed_per_cycle::samples      3238478                       # Number of insts commited each cycle
system.cpu.commit.committed_per_cycle::mean     1.013517                       # Number of insts commited each cycle
system.cpu.commit.committed_per_cycle::stdev     2.125065                       # Number of insts commited each cycle
system.cpu.commit.committed_per_cycle::underflows            0      0.00%      0.00% # Number of insts commited each cycle
system.cpu.commit.committed_per_cycle::0      2291977     70.77%     70.77% # Number of insts commited each cycle
system.cpu.commit.committed_per_cycle::1       335171     10.35%     81.12% # Number of insts commited each cycle
system.cpu.commit.committed_per_cycle::2       141939      4.38%     85.51% # Number of insts commited each cycle
system.cpu.commit.committed_per_cycle::3       115545      3.57%     89.07% # Number of insts commited each cycle
system.cpu.commit.committed_per_cycle::4        61489      1.90%     90.97% # Number of insts commited each cycle
system.cpu.commit.committed_per_cycle::5        33619      1.04%     92.01% # Number of insts commited each cycle
system.cpu.commit.committed_per_cycle::6        67843      2.09%     94.11% # Number of insts commited each cycle
system.cpu.commit.committed_per_cycle::7        31700      0.98%     95.08% # Number of insts commited each cycle
system.cpu.commit.committed_per_cycle::8       159195      4.92%    100.00% # Number of insts commited each cycle
system.cpu.commit.committed_per_cycle::overflows            0      0.00%    100.00% # Number of insts commited each cycle
system.cpu.commit.committed_per_cycle::min_value            0                       # Number of insts commited each cycle
system.cpu.commit.committed_per_cycle::max_value            8                       # Number of insts commited each cycle
system.cpu.commit.committed_per_cycle::total      3238478                       # Number of insts commited each cycle
system.cpu.commit.fp_insts                          0                       # Number of committed floating point instructions.
system.cpu.commit.function_calls                29833                       # Number of function calls committed.
system.cpu.commit.int_insts                   2980509                       # Number of committed integer instructions.
system.cpu.commit.loads                        448105                       # Number of loads committed
system.cpu.commit.membars                         278                       # Number of memory barriers committed
system.cpu.commit.op_class_0::No_OpClass           38      0.00%      0.00% # Class of committed instruction
system.cpu.commit.op_class_0::IntAlu          2375636     72.38%     72.38% # Class of committed instruction
system.cpu.commit.op_class_0::IntMult           17827      0.54%     72.92% # Class of committed instruction
system.cpu.commit.op_class_0::IntDiv              512      0.02%     72.94% # Class of committed instruction
system.cpu.commit.op_class_0::FloatAdd            625      0.02%     72.96% # Class of committed instruction
system.cpu.commit.op_class_0::FloatCmp            137      0.00%     72.96% # Class of committed instruction
system.cpu.commit.op_class_0::FloatCvt           1604      0.05%     73.01% # Class of committed instruction
system.cpu.commit.op_class_0::FloatMult           946      0.03%     73.04% # Class of committed instruction
system.cpu.commit.op_class_0::FloatMultAcc         1506      0.05%     73.08% # Class of committed instruction
system.cpu.commit.op_class_0::FloatDiv            628      0.02%     73.10% # Class of committed instruction
system.cpu.commit.op_class_0::FloatMisc          1211      0.04%     73.14% # Class of committed instruction
system.cpu.commit.op_class_0::FloatSqrt             0      0.00%     73.14% # Class of committed instruction
system.cpu.commit.op_class_0::SimdAdd              98      0.00%     73.14% # Class of committed instruction
system.cpu.commit.op_class_0::SimdAddAcc            0      0.00%     73.14% # Class of committed instruction
system.cpu.commit.op_class_0::SimdAlu             162      0.00%     73.15% # Class of committed instruction
system.cpu.commit.op_class_0::SimdCmp             152      0.00%     73.15% # Class of committed instruction
system.cpu.commit.op_class_0::SimdCvt               0      0.00%     73.15% # Class of committed instruction
system.cpu.commit.op_class_0::SimdMisc            754      0.02%     73.18% # Class of committed instruction
system.cpu.commit.op_class_0::SimdMult              0      0.00%     73.18% # Class of committed instruction
system.cpu.commit.op_class_0::SimdMultAcc            0      0.00%     73.18% # Class of committed instruction
system.cpu.commit.op_class_0::SimdShift             0      0.00%     73.18% # Class of committed instruction
system.cpu.commit.op_class_0::SimdShiftAcc            0      0.00%     73.18% # Class of committed instruction
system.cpu.commit.op_class_0::SimdDiv               0      0.00%     73.18% # Class of committed instruction
system.cpu.commit.op_class_0::SimdSqrt              0      0.00%     73.18% # Class of committed instruction
system.cpu.commit.op_class_0::SimdFloatAdd            0      0.00%     73.18% # Class of committed instruction
system.cpu.commit.op_class_0::SimdFloatAlu            0      0.00%     73.18% # Class of committed instruction
system.cpu.commit.op_class_0::SimdFloatCmp            0      0.00%     73.18% # Class of committed instruction
system.cpu.commit.op_class_0::SimdFloatCvt            0      0.00%     73.18% # Class of committed instruction
system.cpu.commit.op_class_0::SimdFloatDiv            0      0.00%     73.18% # Class of committed instruction
system.cpu.commit.op_class_0::SimdFloatMisc            0      0.00%     73.18% # Class of committed instruction
system.cpu.commit.op_class_0::SimdFloatMult            0      0.00%     73.18% # Class of committed instruction
system.cpu.commit.op_class_0::SimdFloatMultAcc            0      0.00%     73.18% # Class of committed instruction
system.cpu.commit.op_class_0::SimdFloatSqrt            0      0.00%     73.18% # Class of committed instruction
system.cpu.commit.op_class_0::SimdReduceAdd            0      0.00%     73.18% # Class of committed instruction
system.cpu.commit.op_class_0::SimdReduceAlu            0      0.00%     73.18% # Class of committed instruction
system.cpu.commit.op_class_0::SimdReduceCmp            0      0.00%     73.18% # Class of committed instruction
system.cpu.commit.op_class_0::SimdFloatReduceAdd            0      0.00%     73.18% # Class of committed instruction
system.cpu.commit.op_class_0::SimdFloatReduceCmp            0      0.00%     73.18% # Class of committed instruction
system.cpu.commit.op_class_0::SimdAes               0      0.00%     73.18% # Class of committed instruction
system.cpu.commit.op_class_0::SimdAesMix            0      0.00%     73.18% # Class of committed instruction
system.cpu.commit.op_class_0::SimdSha1Hash            0      0.00%     73.18% # Class of committed instruction
system.cpu.commit.op_class_0::SimdSha1Hash2            0      0.00%     73.18% # Class of committed instruction
system.cpu.commit.op_class_0::SimdSha256Hash            0      0.00%     73.18% # Class of committed instruction
system.cpu.commit.op_class_0::SimdSha256Hash2            0      0.00%     73.18% # Class of committed instruction
system.cpu.commit.op_class_0::SimdShaSigma2            0      0.00%     73.18% # Class of committed instruction
system.cpu.commit.op_class_0::SimdShaSigma3            0      0.00%     73.18% # Class of committed instruction
system.cpu.commit.op_class_0::SimdPredAlu            0      0.00%     73.18% # Class of committed instruction
system.cpu.commit.op_class_0::MemRead          448105     13.65%     86.83% # Class of committed instruction
system.cpu.commit.op_class_0::MemWrite         432312     13.17%    100.00% # Class of committed instruction
system.cpu.commit.op_class_0::FloatMemRead            0      0.00%    100.00% # Class of committed instruction
system.cpu.commit.op_class_0::FloatMemWrite            0      0.00%    100.00% # Class of committed instruction
system.cpu.commit.op_class_0::IprAccess             0      0.00%    100.00% # Class of committed instruction
system.cpu.commit.op_class_0::InstPrefetch            0      0.00%    100.00% # Class of committed instruction
system.cpu.commit.op_class_0::total           3282253                       # Class of committed instruction
system.cpu.commit.refs                         880417                       # Number of memory references committed
system.cpu.commit.swp_count                         0                       # Number of s/w prefetches committed
system.cpu.commit.vec_insts                     29063                       # Number of committed Vector instructions.
system.cpu.committedInsts                     2833100                       # Number of Instructions Simulated
system.cpu.committedOps                       3270344                       # Number of Ops (including micro ops) Simulated
system.cpu.cpi                               1.246571                       # CPI: Cycles Per Instruction
system.cpu.cpi_total                         1.246571                       # CPI: Total CPI of All Threads
system.cpu.decode.BlockedCycles               1384529                       # Number of cycles decode is blocked
system.cpu.decode.BranchMispred                  1468                       # Number of times decode detected a branch misprediction
system.cpu.decode.BranchResolved               290972                       # Number of times decode resolved a branch
system.cpu.decode.DecodedInsts                3618472                       # Number of instructions handled by decode
system.cpu.decode.IdleCycles                  1273253                       # Number of cycles decode is idle
system.cpu.decode.RunCycles                    569638                       # Number of cycles decode is running
system.cpu.decode.SquashCycles                   8858                       # Number of cycles decode is squashing
system.cpu.decode.SquashedInsts                  4855                       # Number of squashed instructions handled by decode
system.cpu.decode.UnblockCycles                 40814                       # Number of cycles decode is unblocking
system.cpu.dtb.accesses                             0                       # DTB accesses
system.cpu.dtb.align_faults                         0                       # Number of TLB faults due to alignment restrictions
system.cpu.dtb.domain_faults                        0                       # Number of TLB faults due to domain restrictions
system.cpu.dtb.flush_entries                        0                       # Number of entries that have been flushed from TLB
system.cpu.dtb.flush_tlb                            0                       # Number of times complete TLB was flushed
system.cpu.dtb.flush_tlb_asid                       0                       # Number of times TLB was flushed by ASID
system.cpu.dtb.flush_tlb_mva                        0                       # Number of times TLB was flushed by MVA
system.cpu.dtb.flush_tlb_mva_asid                   0                       # Number of times TLB was flushed by MVA & ASID
system.cpu.dtb.hits                                 0                       # DTB hits
system.cpu.dtb.inst_accesses                        0                       # ITB inst accesses
system.cpu.dtb.inst_hits                            0                       # ITB inst hits
system.cpu.dtb.inst_misses                          0                       # ITB inst misses
system.cpu.dtb.misses                               0                       # DTB misses
system.cpu.dtb.perms_faults                         0                       # Number of TLB faults due to permissions restrictions
system.cpu.dtb.prefetch_faults                      0                       # Number of TLB faults due to prefetch
system.cpu.dtb.read_accesses                        0                       # DTB read accesses
system.cpu.dtb.read_hits                            0                       # DTB read hits
system.cpu.dtb.read_misses                          0                       # DTB read misses
system.cpu.dtb.stage2_mmu.stage2_tlb.accesses            0                       # DTB accesses
system.cpu.dtb.stage2_mmu.stage2_tlb.align_faults            0                       # Number of TLB faults due to alignment restrictions
system.cpu.dtb.stage2_mmu.stage2_tlb.domain_faults            0                       # Number of TLB faults due to domain restrictions
system.cpu.dtb.stage2_mmu.stage2_tlb.flush_entries            0                       # Number of entries that have been flushed from TLB
system.cpu.dtb.stage2_mmu.stage2_tlb.flush_tlb            0                       # Number of times complete TLB was flushed
system.cpu.dtb.stage2_mmu.stage2_tlb.flush_tlb_asid            0                       # Number of times TLB was flushed by ASID
system.cpu.dtb.stage2_mmu.stage2_tlb.flush_tlb_mva            0                       # Number of times TLB was flushed by MVA
system.cpu.dtb.stage2_mmu.stage2_tlb.flush_tlb_mva_asid            0                       # Number of times TLB was flushed by MVA & ASID
system.cpu.dtb.stage2_mmu.stage2_tlb.hits            0                       # DTB hits
system.cpu.dtb.stage2_mmu.stage2_tlb.inst_accesses            0                       # ITB inst accesses
system.cpu.dtb.stage2_mmu.stage2_tlb.inst_hits            0                       # ITB inst hits
system.cpu.dtb.stage2_mmu.stage2_tlb.inst_misses            0                       # ITB inst misses
system.cpu.dtb.stage2_mmu.stage2_tlb.misses            0                       # DTB misses
system.cpu.dtb.stage2_mmu.stage2_tlb.perms_faults            0                       # Number of TLB faults due to permissions restrictions
system.cpu.dtb.stage2_mmu.stage2_tlb.prefetch_faults            0                       # Number of TLB faults due to prefetch
system.cpu.dtb.stage2_mmu.stage2_tlb.read_accesses            0                       # DTB read accesses
system.cpu.dtb.stage2_mmu.stage2_tlb.read_hits            0                       # DTB read hits
system.cpu.dtb.stage2_mmu.stage2_tlb.read_misses            0                       # DTB read misses
system.cpu.dtb.stage2_mmu.stage2_tlb.walker.walkRequestOrigin_Requested::Data            0                       # Table walker requests started/completed, data/inst
system.cpu.dtb.stage2_mmu.stage2_tlb.walker.walkRequestOrigin_Requested::Inst            0                       # Table walker requests started/completed, data/inst
system.cpu.dtb.stage2_mmu.stage2_tlb.walker.walkRequestOrigin_Requested::total            0                       # Table walker requests started/completed, data/inst
system.cpu.dtb.stage2_mmu.stage2_tlb.walker.walkRequestOrigin_Completed::Data            0                       # Table walker requests started/completed, data/inst
system.cpu.dtb.stage2_mmu.stage2_tlb.walker.walkRequestOrigin_Completed::Inst            0                       # Table walker requests started/completed, data/inst
system.cpu.dtb.stage2_mmu.stage2_tlb.walker.walkRequestOrigin_Completed::total            0                       # Table walker requests started/completed, data/inst
system.cpu.dtb.stage2_mmu.stage2_tlb.walker.walkRequestOrigin::total            0                       # Table walker requests started/completed, data/inst
system.cpu.dtb.stage2_mmu.stage2_tlb.walker.walks            0                       # Table walker walks requested
system.cpu.dtb.stage2_mmu.stage2_tlb.write_accesses            0                       # DTB write accesses
system.cpu.dtb.stage2_mmu.stage2_tlb.write_hits            0                       # DTB write hits
system.cpu.dtb.stage2_mmu.stage2_tlb.write_misses            0                       # DTB write misses
system.cpu.dtb.walker.walkRequestOrigin_Requested::Data            0                       # Table walker requests started/completed, data/inst
system.cpu.dtb.walker.walkRequestOrigin_Requested::Inst            0                       # Table walker requests started/completed, data/inst
system.cpu.dtb.walker.walkRequestOrigin_Requested::total            0                       # Table walker requests started/completed, data/inst
system.cpu.dtb.walker.walkRequestOrigin_Completed::Data            0                       # Table walker requests started/completed, data/inst
system.cpu.dtb.walker.walkRequestOrigin_Completed::Inst            0                       # Table walker requests started/completed, data/inst
system.cpu.dtb.walker.walkRequestOrigin_Completed::total            0                       # Table walker requests started/completed, data/inst
system.cpu.dtb.walker.walkRequestOrigin::total            0                       # Table walker requests started/completed, data/inst
system.cpu.dtb.walker.walks                         0                       # Table walker walks requested
system.cpu.dtb.write_accesses                       0                       # DTB write accesses
system.cpu.dtb.write_hits                           0                       # DTB write hits
system.cpu.dtb.write_misses                         0                       # DTB write misses
system.cpu.fetch.Branches                      654839                       # Number of branches that fetch encountered
system.cpu.fetch.CacheLines                    442016                       # Number of cache lines fetched
system.cpu.fetch.Cycles                       1634936                       # Number of cycles fetch has run and was not squashing or blocked
system.cpu.fetch.IcacheSquashes                  5447                       # Number of outstanding Icache misses that were squashed
system.cpu.fetch.IcacheWaitRetryStallCycles         1358                       # Number of stall cycles due to full MSHR
system.cpu.fetch.Insts                        3259325                       # Number of instructions fetch has processed
system.cpu.fetch.MiscStallCycles                  210                       # Number of cycles fetch has spent waiting on interrupts, or bad addresses, or out of MSHRs
system.cpu.fetch.PendingTrapStallCycles           102                       # Number of stall cycles due to pending traps
system.cpu.fetch.SquashCycles                   20576                       # Number of cycles fetch has spent squashing
system.cpu.fetch.branchRate                  0.185420                       # Number of branch fetches per cycle
system.cpu.fetch.icacheStallCycles            1630198                       # Number of cycles fetch is stalled on an Icache miss
system.cpu.fetch.predictedBranches             337612                       # Number of branches that fetch has predicted taken
system.cpu.fetch.rate                        0.922887                       # Number of inst fetches per cycle
system.cpu.fetch.rateDist::samples            3277092                       # Number of instructions fetched each cycle (Total)
system.cpu.fetch.rateDist::mean              1.153520                       # Number of instructions fetched each cycle (Total)
system.cpu.fetch.rateDist::stdev             2.486302                       # Number of instructions fetched each cycle (Total)
system.cpu.fetch.rateDist::underflows               0      0.00%      0.00% # Number of instructions fetched each cycle (Total)
system.cpu.fetch.rateDist::0                  2574522     78.56%     78.56% # Number of instructions fetched each cycle (Total)
system.cpu.fetch.rateDist::1                    57701      1.76%     80.32% # Number of instructions fetched each cycle (Total)
system.cpu.fetch.rateDist::2                    75784      2.31%     82.63% # Number of instructions fetched each cycle (Total)
system.cpu.fetch.rateDist::3                    44493      1.36%     83.99% # Number of instructions fetched each cycle (Total)
system.cpu.fetch.rateDist::4                    91850      2.80%     86.79% # Number of instructions fetched each cycle (Total)
system.cpu.fetch.rateDist::5                    81903      2.50%     89.29% # Number of instructions fetched each cycle (Total)
system.cpu.fetch.rateDist::6                    39560      1.21%     90.50% # Number of instructions fetched each cycle (Total)
system.cpu.fetch.rateDist::7                    67064      2.05%     92.55% # Number of instructions fetched each cycle (Total)
system.cpu.fetch.rateDist::8                   244215      7.45%    100.00% # Number of instructions fetched each cycle (Total)
system.cpu.fetch.rateDist::overflows                0      0.00%    100.00% # Number of instructions fetched each cycle (Total)
system.cpu.fetch.rateDist::min_value                0                       # Number of instructions fetched each cycle (Total)
system.cpu.fetch.rateDist::max_value                8                       # Number of instructions fetched each cycle (Total)
system.cpu.fetch.rateDist::total              3277092                       # Number of instructions fetched each cycle (Total)
system.cpu.icache.prefetcher.num_hwpf_issued       354725                       # number of hwpf issued
system.cpu.icache.prefetcher.pfBufferHit      2696987                       # number of redundant prefetches already in prefetch queue
system.cpu.icache.prefetcher.pfIdentified      3700578                       # number of prefetch candidates identified
system.cpu.icache.prefetcher.pfInCache              0                       # number of redundant prefetches already in cache/mshr dropped
system.cpu.icache.prefetcher.pfRemovedFull        42627                       # number of prefetches dropped due to prefetch queue size
system.cpu.icache.prefetcher.pfSpanPage      30591749                       # number of prefetches that crossed the page
system.cpu.idleCycles                          254569                       # Total number of cycles that the CPU has spent unscheduled due to idling
system.cpu.iew.branchMispredicts                 6372                       # Number of branch mispredicts detected at execute
system.cpu.iew.exec_branches                   605366                       # Number of branches executed
system.cpu.iew.exec_nop                         12190                       # number of nop insts executed
system.cpu.iew.exec_rate                     0.992771                       # Inst execution rate
system.cpu.iew.exec_refs                       964043                       # number of memory reference insts executed
system.cpu.iew.exec_stores                     464479                       # Number of stores executed
system.cpu.iew.exec_swp                             0                       # number of swp insts executed
system.cpu.iew.iewBlockCycles                   40118                       # Number of cycles IEW is blocking
system.cpu.iew.iewDispLoadInsts                502898                       # Number of dispatched load instructions
system.cpu.iew.iewDispNonSpecInsts                532                       # Number of dispatched non-speculative instructions
system.cpu.iew.iewDispSquashedInsts              6520                       # Number of squashed instructions skipped by dispatch
system.cpu.iew.iewDispStoreInsts               470006                       # Number of dispatched store instructions
system.cpu.iew.iewDispatchedInsts             3555419                       # Number of instructions dispatched to IQ
system.cpu.iew.iewExecLoadInsts                499564                       # Number of load instructions executed
system.cpu.iew.iewExecSquashedInsts             11862                       # Number of squashed instructions skipped in execute
system.cpu.iew.iewExecutedInsts               3506130                       # Number of executed instructions
system.cpu.iew.iewIQFullEvents                    139                       # Number of times the IQ has become full, causing a stall
system.cpu.iew.iewIdleCycles                        0                       # Number of cycles IEW is idle
system.cpu.iew.iewLSQFullEvents                 30118                       # Number of times the LSQ has become full, causing a stall
system.cpu.iew.iewSquashCycles                   8858                       # Number of cycles IEW is squashing
system.cpu.iew.iewUnblockCycles                 30406                       # Number of cycles IEW is unblocking
system.cpu.iew.lsq.thread0.blockedLoads             0                       # Number of blocked loads due to partial load-store forwarding
system.cpu.iew.lsq.thread0.cacheBlocked         13805                       # Number of times an access to memory failed due to the cache being blocked
system.cpu.iew.lsq.thread0.forwLoads            14369                       # Number of loads that had data forwarded from stores
system.cpu.iew.lsq.thread0.ignoredResponses           19                       # Number of memory responses ignored because the instruction is squashed
system.cpu.iew.lsq.thread0.invAddrLoads             0                       # Number of loads ignored due to an invalid address
system.cpu.iew.lsq.thread0.invAddrSwpfs             0                       # Number of software prefetches ignored due to an invalid address
system.cpu.iew.lsq.thread0.memOrderViolation           31                       # Number of memory ordering violations
system.cpu.iew.lsq.thread0.rescheduledLoads          305                       # Number of loads that were rescheduled
system.cpu.iew.lsq.thread0.squashedLoads        54793                       # Number of loads squashed
system.cpu.iew.lsq.thread0.squashedStores        37694                       # Number of stores squashed
system.cpu.iew.memOrderViolationEvents             31                       # Number of memory order violations
system.cpu.iew.predictedNotTakenIncorrect         3609                       # Number of branches that were predicted not taken incorrectly
system.cpu.iew.predictedTakenIncorrect           2763                       # Number of branches that were predicted taken incorrectly
system.cpu.iew.wb_consumers                   3177702                       # num instructions consuming a value
system.cpu.iew.wb_count                       3486065                       # cumulative count of insts written-back
system.cpu.iew.wb_fanout                     0.616815                       # average fanout of values written-back
system.cpu.iew.wb_producers                   1960053                       # num instructions producing a value
system.cpu.iew.wb_rate                       0.987089                       # insts written-back per cycle
system.cpu.iew.wb_sent                        3497780                       # cumulative count of insts sent to commit
system.cpu.int_regfile_reads                  3972747                       # number of integer regfile reads
system.cpu.int_regfile_writes                 2544400                       # number of integer regfile writes
system.cpu.ipc                               0.802200                       # IPC: Instructions Per Cycle
system.cpu.ipc_total                         0.802200                       # IPC: Total IPC of All Threads
system.cpu.iq.FU_type_0::No_OpClass                56      0.00%      0.00% # Type of FU issued
system.cpu.iq.FU_type_0::IntAlu               2520120     71.64%     71.64% # Type of FU issued
system.cpu.iq.FU_type_0::IntMult                18917      0.54%     72.17% # Type of FU issued
system.cpu.iq.FU_type_0::IntDiv                   607      0.02%     72.19% # Type of FU issued
system.cpu.iq.FU_type_0::FloatAdd                 632      0.02%     72.21% # Type of FU issued
system.cpu.iq.FU_type_0::FloatCmp                 137      0.00%     72.21% # Type of FU issued
system.cpu.iq.FU_type_0::FloatCvt                1997      0.06%     72.27% # Type of FU issued
system.cpu.iq.FU_type_0::FloatMult               1038      0.03%     72.30% # Type of FU issued
system.cpu.iq.FU_type_0::FloatMultAcc            1506      0.04%     72.34% # Type of FU issued
system.cpu.iq.FU_type_0::FloatDiv                 810      0.02%     72.37% # Type of FU issued
system.cpu.iq.FU_type_0::FloatMisc               1614      0.05%     72.41% # Type of FU issued
system.cpu.iq.FU_type_0::FloatSqrt                  0      0.00%     72.41% # Type of FU issued
system.cpu.iq.FU_type_0::SimdAdd                  102      0.00%     72.41% # Type of FU issued
system.cpu.iq.FU_type_0::SimdAddAcc                 0      0.00%     72.41% # Type of FU issued
system.cpu.iq.FU_type_0::SimdAlu                  168      0.00%     72.42% # Type of FU issued
system.cpu.iq.FU_type_0::SimdCmp                  156      0.00%     72.42% # Type of FU issued
system.cpu.iq.FU_type_0::SimdCvt                    0      0.00%     72.42% # Type of FU issued
system.cpu.iq.FU_type_0::SimdMisc                 809      0.02%     72.45% # Type of FU issued
system.cpu.iq.FU_type_0::SimdMult                   0      0.00%     72.45% # Type of FU issued
system.cpu.iq.FU_type_0::SimdMultAcc                0      0.00%     72.45% # Type of FU issued
system.cpu.iq.FU_type_0::SimdShift                  0      0.00%     72.45% # Type of FU issued
system.cpu.iq.FU_type_0::SimdShiftAcc               0      0.00%     72.45% # Type of FU issued
system.cpu.iq.FU_type_0::SimdDiv                    0      0.00%     72.45% # Type of FU issued
system.cpu.iq.FU_type_0::SimdSqrt                   0      0.00%     72.45% # Type of FU issued
system.cpu.iq.FU_type_0::SimdFloatAdd               0      0.00%     72.45% # Type of FU issued
system.cpu.iq.FU_type_0::SimdFloatAlu               0      0.00%     72.45% # Type of FU issued
system.cpu.iq.FU_type_0::SimdFloatCmp               0      0.00%     72.45% # Type of FU issued
system.cpu.iq.FU_type_0::SimdFloatCvt               0      0.00%     72.45% # Type of FU issued
system.cpu.iq.FU_type_0::SimdFloatDiv               0      0.00%     72.45% # Type of FU issued
system.cpu.iq.FU_type_0::SimdFloatMisc              0      0.00%     72.45% # Type of FU issued
system.cpu.iq.FU_type_0::SimdFloatMult              0      0.00%     72.45% # Type of FU issued
system.cpu.iq.FU_type_0::SimdFloatMultAcc            0      0.00%     72.45% # Type of FU issued
system.cpu.iq.FU_type_0::SimdFloatSqrt              0      0.00%     72.45% # Type of FU issued
system.cpu.iq.FU_type_0::SimdReduceAdd              0      0.00%     72.45% # Type of FU issued
system.cpu.iq.FU_type_0::SimdReduceAlu              0      0.00%     72.45% # Type of FU issued
system.cpu.iq.FU_type_0::SimdReduceCmp              0      0.00%     72.45% # Type of FU issued
system.cpu.iq.FU_type_0::SimdFloatReduceAdd            0      0.00%     72.45% # Type of FU issued
system.cpu.iq.FU_type_0::SimdFloatReduceCmp            0      0.00%     72.45% # Type of FU issued
system.cpu.iq.FU_type_0::SimdAes                    0      0.00%     72.45% # Type of FU issued
system.cpu.iq.FU_type_0::SimdAesMix                 0      0.00%     72.45% # Type of FU issued
system.cpu.iq.FU_type_0::SimdSha1Hash               0      0.00%     72.45% # Type of FU issued
system.cpu.iq.FU_type_0::SimdSha1Hash2              0      0.00%     72.45% # Type of FU issued
system.cpu.iq.FU_type_0::SimdSha256Hash             0      0.00%     72.45% # Type of FU issued
system.cpu.iq.FU_type_0::SimdSha256Hash2            0      0.00%     72.45% # Type of FU issued
system.cpu.iq.FU_type_0::SimdShaSigma2              0      0.00%     72.45% # Type of FU issued
system.cpu.iq.FU_type_0::SimdShaSigma3              0      0.00%     72.45% # Type of FU issued
system.cpu.iq.FU_type_0::SimdPredAlu                0      0.00%     72.45% # Type of FU issued
system.cpu.iq.FU_type_0::MemRead               503020     14.30%     86.75% # Type of FU issued
system.cpu.iq.FU_type_0::MemWrite              466303     13.25%    100.00% # Type of FU issued
system.cpu.iq.FU_type_0::FloatMemRead               0      0.00%    100.00% # Type of FU issued
system.cpu.iq.FU_type_0::FloatMemWrite              0      0.00%    100.00% # Type of FU issued
system.cpu.iq.FU_type_0::IprAccess                  0      0.00%    100.00% # Type of FU issued
system.cpu.iq.FU_type_0::InstPrefetch               0      0.00%    100.00% # Type of FU issued
system.cpu.iq.FU_type_0::total                3517992                       # Type of FU issued
system.cpu.iq.fp_alu_accesses                       0                       # Number of floating point alu accesses
system.cpu.iq.fp_inst_queue_reads                   0                       # Number of floating instruction queue reads
system.cpu.iq.fp_inst_queue_wakeup_accesses            0                       # Number of floating instruction queue wakeup accesses
system.cpu.iq.fp_inst_queue_writes                  0                       # Number of floating instruction queue writes
system.cpu.iq.fu_busy_cnt                       47363                       # FU busy when requested
system.cpu.iq.fu_busy_rate                   0.013463                       # FU busy rate (busy events/executed inst)
system.cpu.iq.fu_full::No_OpClass                   0      0.00%      0.00% # attempts to use FU when none available
system.cpu.iq.fu_full::IntAlu                   22172     46.81%     46.81% # attempts to use FU when none available
system.cpu.iq.fu_full::IntMult                    681      1.44%     48.25% # attempts to use FU when none available
system.cpu.iq.fu_full::IntDiv                      39      0.08%     48.33% # attempts to use FU when none available
system.cpu.iq.fu_full::FloatAdd                     0      0.00%     48.33% # attempts to use FU when none available
system.cpu.iq.fu_full::FloatCmp                     0      0.00%     48.33% # attempts to use FU when none available
system.cpu.iq.fu_full::FloatCvt                     0      0.00%     48.33% # attempts to use FU when none available
system.cpu.iq.fu_full::FloatMult                  125      0.26%     48.60% # attempts to use FU when none available
system.cpu.iq.fu_full::FloatMultAcc                75      0.16%     48.76% # attempts to use FU when none available
system.cpu.iq.fu_full::FloatDiv                     0      0.00%     48.76% # attempts to use FU when none available
system.cpu.iq.fu_full::FloatMisc                    5      0.01%     48.77% # attempts to use FU when none available
system.cpu.iq.fu_full::FloatSqrt                    0      0.00%     48.77% # attempts to use FU when none available
system.cpu.iq.fu_full::SimdAdd                      0      0.00%     48.77% # attempts to use FU when none available
system.cpu.iq.fu_full::SimdAddAcc                   0      0.00%     48.77% # attempts to use FU when none available
system.cpu.iq.fu_full::SimdAlu                      1      0.00%     48.77% # attempts to use FU when none available
system.cpu.iq.fu_full::SimdCmp                      4      0.01%     48.78% # attempts to use FU when none available
system.cpu.iq.fu_full::SimdCvt                      0      0.00%     48.78% # attempts to use FU when none available
system.cpu.iq.fu_full::SimdMisc                     0      0.00%     48.78% # attempts to use FU when none available
system.cpu.iq.fu_full::SimdMult                     0      0.00%     48.78% # attempts to use FU when none available
system.cpu.iq.fu_full::SimdMultAcc                  0      0.00%     48.78% # attempts to use FU when none available
system.cpu.iq.fu_full::SimdShift                    0      0.00%     48.78% # attempts to use FU when none available
system.cpu.iq.fu_full::SimdShiftAcc                 0      0.00%     48.78% # attempts to use FU when none available
system.cpu.iq.fu_full::SimdDiv                      0      0.00%     48.78% # attempts to use FU when none available
system.cpu.iq.fu_full::SimdSqrt                     0      0.00%     48.78% # attempts to use FU when none available
system.cpu.iq.fu_full::SimdFloatAdd                 0      0.00%     48.78% # attempts to use FU when none available
system.cpu.iq.fu_full::SimdFloatAlu                 0      0.00%     48.78% # attempts to use FU when none available
system.cpu.iq.fu_full::SimdFloatCmp                 0      0.00%     48.78% # attempts to use FU when none available
system.cpu.iq.fu_full::SimdFloatCvt                 0      0.00%     48.78% # attempts to use FU when none available
system.cpu.iq.fu_full::SimdFloatDiv                 0      0.00%     48.78% # attempts to use FU when none available
system.cpu.iq.fu_full::SimdFloatMisc                0      0.00%     48.78% # attempts to use FU when none available
system.cpu.iq.fu_full::SimdFloatMult                0      0.00%     48.78% # attempts to use FU when none available
system.cpu.iq.fu_full::SimdFloatMultAcc             0      0.00%     48.78% # attempts to use FU when none available
system.cpu.iq.fu_full::SimdFloatSqrt                0      0.00%     48.78% # attempts to use FU when none available
system.cpu.iq.fu_full::SimdReduceAdd                0      0.00%     48.78% # attempts to use FU when none available
system.cpu.iq.fu_full::SimdReduceAlu                0      0.00%     48.78% # attempts to use FU when none available
system.cpu.iq.fu_full::SimdReduceCmp                0      0.00%     48.78% # attempts to use FU when none available
system.cpu.iq.fu_full::SimdFloatReduceAdd            0      0.00%     48.78% # attempts to use FU when none available
system.cpu.iq.fu_full::SimdFloatReduceCmp            0      0.00%     48.78% # attempts to use FU when none available
system.cpu.iq.fu_full::SimdAes                      0      0.00%     48.78% # attempts to use FU when none available
system.cpu.iq.fu_full::SimdAesMix                   0      0.00%     48.78% # attempts to use FU when none available
system.cpu.iq.fu_full::SimdSha1Hash                 0      0.00%     48.78% # attempts to use FU when none available
system.cpu.iq.fu_full::SimdSha1Hash2                0      0.00%     48.78% # attempts to use FU when none available
system.cpu.iq.fu_full::SimdSha256Hash               0      0.00%     48.78% # attempts to use FU when none available
system.cpu.iq.fu_full::SimdSha256Hash2              0      0.00%     48.78% # attempts to use FU when none available
system.cpu.iq.fu_full::SimdShaSigma2                0      0.00%     48.78% # attempts to use FU when none available
system.cpu.iq.fu_full::SimdShaSigma3                0      0.00%     48.78% # attempts to use FU when none available
system.cpu.iq.fu_full::SimdPredAlu                  0      0.00%     48.78% # attempts to use FU when none available
system.cpu.iq.fu_full::MemRead                   4679      9.88%     58.66% # attempts to use FU when none available
system.cpu.iq.fu_full::MemWrite                 19582     41.34%    100.00% # attempts to use FU when none available
system.cpu.iq.fu_full::FloatMemRead                 0      0.00%    100.00% # attempts to use FU when none available
system.cpu.iq.fu_full::FloatMemWrite                0      0.00%    100.00% # attempts to use FU when none available
system.cpu.iq.fu_full::IprAccess                    0      0.00%    100.00% # attempts to use FU when none available
system.cpu.iq.fu_full::InstPrefetch                 0      0.00%    100.00% # attempts to use FU when none available
system.cpu.iq.int_alu_accesses                3530706                       # Number of integer alu accesses
system.cpu.iq.int_inst_queue_reads           10294545                       # Number of integer instruction queue reads
system.cpu.iq.int_inst_queue_wakeup_accesses      3455242                       # Number of integer instruction queue wakeup accesses
system.cpu.iq.int_inst_queue_writes           3777968                       # Number of integer instruction queue writes
system.cpu.iq.iqInstsAdded                    3542697                       # Number of instructions added to the IQ (excludes non-spec)
system.cpu.iq.iqInstsIssued                   3517992                       # Number of instructions issued
system.cpu.iq.iqNonSpecInstsAdded                 532                       # Number of non-speculative instructions added to the IQ
system.cpu.iq.iqSquashedInstsExamined          272884                       # Number of squashed instructions iterated over during squash; mainly for profiling
system.cpu.iq.iqSquashedInstsIssued              1184                       # Number of squashed instructions issued
system.cpu.iq.iqSquashedNonSpecRemoved            144                       # Number of squashed non-spec instructions that were removed
system.cpu.iq.iqSquashedOperandsExamined       121518                       # Number of squashed operands that are examined and possibly removed from graph
system.cpu.iq.issued_per_cycle::samples       3277092                       # Number of insts issued each cycle
system.cpu.iq.issued_per_cycle::mean         1.073510                       # Number of insts issued each cycle
system.cpu.iq.issued_per_cycle::stdev        1.861718                       # Number of insts issued each cycle
system.cpu.iq.issued_per_cycle::underflows            0      0.00%      0.00% # Number of insts issued each cycle
system.cpu.iq.issued_per_cycle::0             2176435     66.41%     66.41% # Number of insts issued each cycle
system.cpu.iq.issued_per_cycle::1              248364      7.58%     73.99% # Number of insts issued each cycle
system.cpu.iq.issued_per_cycle::2              218864      6.68%     80.67% # Number of insts issued each cycle
system.cpu.iq.issued_per_cycle::3              212103      6.47%     87.14% # Number of insts issued each cycle
system.cpu.iq.issued_per_cycle::4              171168      5.22%     92.37% # Number of insts issued each cycle
system.cpu.iq.issued_per_cycle::5               88383      2.70%     95.06% # Number of insts issued each cycle
system.cpu.iq.issued_per_cycle::6               89157      2.72%     97.78% # Number of insts issued each cycle
system.cpu.iq.issued_per_cycle::7               46882      1.43%     99.21% # Number of insts issued each cycle
system.cpu.iq.issued_per_cycle::8               25736      0.79%    100.00% # Number of insts issued each cycle
system.cpu.iq.issued_per_cycle::overflows            0      0.00%    100.00% # Number of insts issued each cycle
system.cpu.iq.issued_per_cycle::min_value            0                       # Number of insts issued each cycle
system.cpu.iq.issued_per_cycle::max_value            8                       # Number of insts issued each cycle
system.cpu.iq.issued_per_cycle::total         3277092                       # Number of insts issued each cycle
system.cpu.iq.rate                           0.996130                       # Inst issue rate
system.cpu.iq.vec_alu_accesses                  34593                       # Number of vector alu accesses
system.cpu.iq.vec_inst_queue_reads              67078                       # Number of vector instruction queue reads
system.cpu.iq.vec_inst_queue_wakeup_accesses        30823                       # Number of vector instruction queue wakeup accesses
system.cpu.iq.vec_inst_queue_writes             38175                       # Number of vector instruction queue writes
system.cpu.itb.accesses                             0                       # DTB accesses
system.cpu.itb.align_faults                         0                       # Number of TLB faults due to alignment restrictions
system.cpu.itb.domain_faults                        0                       # Number of TLB faults due to domain restrictions
system.cpu.itb.flush_entries                        0                       # Number of entries that have been flushed from TLB
system.cpu.itb.flush_tlb                            0                       # Number of times complete TLB was flushed
system.cpu.itb.flush_tlb_asid                       0                       # Number of times TLB was flushed by ASID
system.cpu.itb.flush_tlb_mva                        0                       # Number of times TLB was flushed by MVA
system.cpu.itb.flush_tlb_mva_asid                   0                       # Number of times TLB was flushed by MVA & ASID
system.cpu.itb.hits                                 0                       # DTB hits
system.cpu.itb.inst_accesses                        0                       # ITB inst accesses
system.cpu.itb.inst_hits                            0                       # ITB inst hits
system.cpu.itb.inst_misses                          0                       # ITB inst misses
system.cpu.itb.misses                               0                       # DTB misses
system.cpu.itb.perms_faults                         0                       # Number of TLB faults due to permissions restrictions
system.cpu.itb.prefetch_faults                      0                       # Number of TLB faults due to prefetch
system.cpu.itb.read_accesses                        0                       # DTB read accesses
system.cpu.itb.read_hits                            0                       # DTB read hits
system.cpu.itb.read_misses                          0                       # DTB read misses
system.cpu.itb.stage2_mmu.stage2_tlb.accesses            0                       # DTB accesses
system.cpu.itb.stage2_mmu.stage2_tlb.align_faults            0                       # Number of TLB faults due to alignment restrictions
system.cpu.itb.stage2_mmu.stage2_tlb.domain_faults            0                       # Number of TLB faults due to domain restrictions
system.cpu.itb.stage2_mmu.stage2_tlb.flush_entries            0                       # Number of entries that have been flushed from TLB
system.cpu.itb.stage2_mmu.stage2_tlb.flush_tlb            0                       # Number of times complete TLB was flushed
system.cpu.itb.stage2_mmu.stage2_tlb.flush_tlb_asid            0                       # Number of times TLB was flushed by ASID
system.cpu.itb.stage2_mmu.stage2_tlb.flush_tlb_mva            0                       # Number of times TLB was flushed by MVA
system.cpu.itb.stage2_mmu.stage2_tlb.flush_tlb_mva_asid            0                       # Number of times TLB was flushed by MVA & ASID
system.cpu.itb.stage2_mmu.stage2_tlb.hits            0                       # DTB hits
system.cpu.itb.stage2_mmu.stage2_tlb.inst_accesses            0                       # ITB inst accesses
system.cpu.itb.stage2_mmu.stage2_tlb.inst_hits            0                       # ITB inst hits
system.cpu.itb.stage2_mmu.stage2_tlb.inst_misses            0                       # ITB inst misses
system.cpu.itb.stage2_mmu.stage2_tlb.misses            0                       # DTB misses
system.cpu.itb.stage2_mmu.stage2_tlb.perms_faults            0                       # Number of TLB faults due to permissions restrictions
system.cpu.itb.stage2_mmu.stage2_tlb.prefetch_faults            0                       # Number of TLB faults due to prefetch
system.cpu.itb.stage2_mmu.stage2_tlb.read_accesses            0                       # DTB read accesses
system.cpu.itb.stage2_mmu.stage2_tlb.read_hits            0                       # DTB read hits
system.cpu.itb.stage2_mmu.stage2_tlb.read_misses            0                       # DTB read misses
system.cpu.itb.stage2_mmu.stage2_tlb.walker.walkRequestOrigin_Requested::Data            0                       # Table walker requests started/completed, data/inst
system.cpu.itb.stage2_mmu.stage2_tlb.walker.walkRequestOrigin_Requested::Inst            0                       # Table walker requests started/completed, data/inst
system.cpu.itb.stage2_mmu.stage2_tlb.walker.walkRequestOrigin_Requested::total            0                       # Table walker requests started/completed, data/inst
system.cpu.itb.stage2_mmu.stage2_tlb.walker.walkRequestOrigin_Completed::Data            0                       # Table walker requests started/completed, data/inst
system.cpu.itb.stage2_mmu.stage2_tlb.walker.walkRequestOrigin_Completed::Inst            0                       # Table walker requests started/completed, data/inst
system.cpu.itb.stage2_mmu.stage2_tlb.walker.walkRequestOrigin_Completed::total            0                       # Table walker requests started/completed, data/inst
system.cpu.itb.stage2_mmu.stage2_tlb.walker.walkRequestOrigin::total            0                       # Table walker requests started/completed, data/inst
system.cpu.itb.stage2_mmu.stage2_tlb.walker.walks            0                       # Table walker walks requested
system.cpu.itb.stage2_mmu.stage2_tlb.write_accesses            0                       # DTB write accesses
system.cpu.itb.stage2_mmu.stage2_tlb.write_hits            0                       # DTB write hits
system.cpu.itb.stage2_mmu.stage2_tlb.write_misses            0                       # DTB write misses
system.cpu.itb.walker.walkRequestOrigin_Requested::Data            0                       # Table walker requests started/completed, data/inst
system.cpu.itb.walker.walkRequestOrigin_Requested::Inst            0                       # Table walker requests started/completed, data/inst
system.cpu.itb.walker.walkRequestOrigin_Requested::total            0                       # Table walker requests started/completed, data/inst
system.cpu.itb.walker.walkRequestOrigin_Completed::Data            0                       # Table walker requests started/completed, data/inst
system.cpu.itb.walker.walkRequestOrigin_Completed::Inst            0                       # Table walker requests started/completed, data/inst
system.cpu.itb.walker.walkRequestOrigin_Completed::total            0                       # Table walker requests started/completed, data/inst
system.cpu.itb.walker.walkRequestOrigin::total            0                       # Table walker requests started/completed, data/inst
system.cpu.itb.walker.walks                         0                       # Table walker walks requested
system.cpu.itb.write_accesses                       0                       # DTB write accesses
system.cpu.itb.write_hits                           0                       # DTB write hits
system.cpu.itb.write_misses                         0                       # DTB write misses
system.cpu.memDep0.conflictingLoads              5087                       # Number of conflicting loads.
system.cpu.memDep0.conflictingStores             4781                       # Number of conflicting stores.
system.cpu.memDep0.insertedLoads               502898                       # Number of loads inserted to the mem dependence unit.
system.cpu.memDep0.insertedStores              470006                       # Number of stores inserted to the mem dependence unit.
system.cpu.misc_regfile_reads                 2431532                       # number of misc regfile reads
system.cpu.misc_regfile_writes                   6559                       # number of misc regfile writes
system.cpu.numCycles                          3531661                       # number of cpu cycles simulated
system.cpu.numWorkItemsCompleted                    0                       # number of work items this cpu completed
system.cpu.numWorkItemsStarted                      0                       # number of work items this cpu started
system.cpu.rename.BlockCycles                   72021                       # Number of cycles rename is blocking
system.cpu.rename.CommittedMaps               3318812                       # Number of HB maps that are committed
system.cpu.rename.IQFullEvents                   8451                       # Number of times rename has blocked due to IQ full
system.cpu.rename.IdleCycles                  1290330                       # Number of cycles rename is idle
system.cpu.rename.LQFullEvents                   3330                       # Number of times rename has blocked due to LQ full
system.cpu.rename.ROBFullEvents                    47                       # Number of times rename has blocked due to ROB full
system.cpu.rename.RenameLookups               5358409                       # Number of register rename lookups that rename has made
system.cpu.rename.RenamedInsts                3579568                       # Number of instructions processed by rename
system.cpu.rename.RenamedOperands             3619046                       # Number of destination operands rename has renamed
system.cpu.rename.RunCycles                    592603                       # Number of cycles rename is running
system.cpu.rename.SQFullEvents                 266596                       # Number of times rename has blocked due to SQ full
system.cpu.rename.SquashCycles                   8858                       # Number of cycles rename is squashing
system.cpu.rename.UnblockCycles                301385                       # Number of cycles rename is unblocking
system.cpu.rename.UndoneMaps                   300234                       # Number of HB maps that are undone due to squashing
system.cpu.rename.int_rename_lookups          4045898                       # Number of integer rename lookups
system.cpu.rename.serializeStallCycles        1011895                       # count of cycles rename stalled for serializing inst
system.cpu.rename.serializingInsts              24147                       # count of serializing insts renamed
system.cpu.rename.skidInsts                    221029                       # count of insts added to the skid buffer
system.cpu.rename.tempSerializingInsts            529                       # count of temporary serializing insts renamed
system.cpu.rename.vec_rename_lookups            35129                       # Number of vector rename lookups
system.cpu.rob.rob_reads                      6591749                       # The number of ROB reads
system.cpu.rob.rob_writes                     7139943                       # The number of ROB writes
system.cpu.timesIdled                           35602                       # Number of times that the entire CPU went into an idle state and unscheduled itself
system.cpu.vec_regfile_reads                    31647                       # number of vector regfile reads
system.cpu.vec_regfile_writes                    9987                       # number of vector regfile writes
system.cpu.workload.numSyscalls                   109                       # Number of system calls
system.membus.snoop_filter.hit_multi_requests            0                       # Number of requests hitting in the snoop filter with multiple (>1) holders of the requested data.
system.membus.snoop_filter.hit_multi_snoops            0                       # Number of snoops hitting in the snoop filter with multiple (>1) holders of the requested data.
system.membus.snoop_filter.hit_single_requests          454                       # Number of requests hitting in the snoop filter with a single holder of the requested data.
system.membus.snoop_filter.hit_single_snoops            0                       # Number of snoops hitting in the snoop filter with a single holder of the requested data.
system.membus.snoop_filter.tot_requests         27846                       # Total number of requests made to the snoop filter.
system.membus.snoop_filter.tot_snoops               0                       # Total number of snoops made to the snoop filter.
system.tol2bus.snoop_filter.hit_multi_requests           15                       # Number of requests hitting in the snoop filter with multiple (>1) holders of the requested data.
system.tol2bus.snoop_filter.hit_multi_snoops            0                       # Number of snoops hitting in the snoop filter with multiple (>1) holders of the requested data.
system.tol2bus.snoop_filter.hit_single_requests       137340                       # Number of requests hitting in the snoop filter with a single holder of the requested data.
system.tol2bus.snoop_filter.hit_single_snoops            0                       # Number of snoops hitting in the snoop filter with a single holder of the requested data.
system.tol2bus.snoop_filter.tot_requests       275769                       # Total number of requests made to the snoop filter.
system.tol2bus.snoop_filter.tot_snoops              0                       # Total number of snoops made to the snoop filter.
system.membus.trans_dist::ReadResp               1878                       # Transaction distribution
system.membus.trans_dist::WritebackDirty          301                       # Transaction distribution
system.membus.trans_dist::CleanEvict              153                       # Transaction distribution
system.membus.trans_dist::ReadExReq              8337                       # Transaction distribution
system.membus.trans_dist::ReadExResp             8337                       # Transaction distribution
system.membus.trans_dist::ReadSharedReq          1878                       # Transaction distribution
system.membus.trans_dist::InvalidateReq         17177                       # Transaction distribution
system.membus.pkt_count_system.l2.mem_side::system.mem_ctrls.port        38061                       # Packet count per connected master and slave (bytes)
system.membus.pkt_count::total                  38061                       # Packet count per connected master and slave (bytes)
system.membus.pkt_size_system.l2.mem_side::system.mem_ctrls.port       673024                       # Cumulative packet size per connected master and slave (bytes)
system.membus.pkt_size::total                  673024                       # Cumulative packet size per connected master and slave (bytes)
system.membus.snoops                                0                       # Total snoops (count)
system.membus.snoopTraffic                          0                       # Total snoop traffic (bytes)
system.membus.snoop_fanout::samples             27392                       # Request fanout histogram
system.membus.snoop_fanout::mean                    0                       # Request fanout histogram
system.membus.snoop_fanout::stdev                   0                       # Request fanout histogram
system.membus.snoop_fanout::underflows              0      0.00%      0.00% # Request fanout histogram
system.membus.snoop_fanout::0                   27392    100.00%    100.00% # Request fanout histogram
system.membus.snoop_fanout::1                       0      0.00%    100.00% # Request fanout histogram
system.membus.snoop_fanout::overflows               0      0.00%    100.00% # Request fanout histogram
system.membus.snoop_fanout::min_value               0                       # Request fanout histogram
system.membus.snoop_fanout::max_value               0                       # Request fanout histogram
system.membus.snoop_fanout::total               27392                       # Request fanout histogram
system.membus.reqLayer0.occupancy            32598514                       # Layer occupancy (ticks)
system.membus.reqLayer0.utilization               1.8                       # Layer utilization (%)
system.membus.respLayer1.occupancy           54276501                       # Layer occupancy (ticks)
system.membus.respLayer1.utilization              3.1                       # Layer utilization (%)
system.membus.power_state.pwrStateResidencyTicks::UNDEFINED   1765830000                       # Cumulative time (in ticks) in various power states
system.tol2bus.trans_dist::ReadResp            112726                       # Transaction distribution
system.tol2bus.trans_dist::WritebackDirty        25597                       # Transaction distribution
system.tol2bus.trans_dist::WritebackClean       111613                       # Transaction distribution
system.tol2bus.trans_dist::CleanEvict             584                       # Transaction distribution
system.tol2bus.trans_dist::ReadExReq             8493                       # Transaction distribution
system.tol2bus.trans_dist::ReadExResp            8493                       # Transaction distribution
system.tol2bus.trans_dist::ReadCleanReq        111678                       # Transaction distribution
system.tol2bus.trans_dist::ReadSharedReq         1049                       # Transaction distribution
system.tol2bus.trans_dist::InvalidateReq        17209                       # Transaction distribution
system.tol2bus.trans_dist::InvalidateResp        17209                       # Transaction distribution
system.tol2bus.pkt_count_system.cpu.icache.mem_side::system.l2.cpu_side       334968                       # Packet count per connected master and slave (bytes)
system.tol2bus.pkt_count_system.cpu.dcache.mem_side::system.l2.cpu_side        79229                       # Packet count per connected master and slave (bytes)
system.tol2bus.pkt_count::total                414197                       # Packet count per connected master and slave (bytes)
system.tol2bus.pkt_size_system.cpu.icache.mem_side::system.l2.cpu_side     14290560                       # Cumulative packet size per connected master and slave (bytes)
system.tol2bus.pkt_size_system.cpu.dcache.mem_side::system.l2.cpu_side      2229632                       # Cumulative packet size per connected master and slave (bytes)
system.tol2bus.pkt_size::total               16520192                       # Cumulative packet size per connected master and slave (bytes)
system.tol2bus.snoops                             454                       # Total snoops (count)
system.tol2bus.snoopTraffic                     19264                       # Total snoop traffic (bytes)
system.tol2bus.snoop_fanout::samples           138883                       # Request fanout histogram
system.tol2bus.snoop_fanout::mean            0.000108                       # Request fanout histogram
system.tol2bus.snoop_fanout::stdev           0.010392                       # Request fanout histogram
system.tol2bus.snoop_fanout::underflows             0      0.00%      0.00% # Request fanout histogram
system.tol2bus.snoop_fanout::0                 138868     99.99%     99.99% # Request fanout histogram
system.tol2bus.snoop_fanout::1                     15      0.01%    100.00% # Request fanout histogram
system.tol2bus.snoop_fanout::2                      0      0.00%    100.00% # Request fanout histogram
system.tol2bus.snoop_fanout::overflows              0      0.00%    100.00% # Request fanout histogram
system.tol2bus.snoop_fanout::min_value              0                       # Request fanout histogram
system.tol2bus.snoop_fanout::max_value              1                       # Request fanout histogram
system.tol2bus.snoop_fanout::total             138883                       # Request fanout histogram
system.tol2bus.reqLayer0.occupancy          291634192                       # Layer occupancy (ticks)
system.tol2bus.reqLayer0.utilization             16.5                       # Layer utilization (%)
system.tol2bus.respLayer1.occupancy          23338656                       # Layer occupancy (ticks)
system.tol2bus.respLayer1.utilization             1.3                       # Layer utilization (%)
system.tol2bus.respLayer0.occupancy         167519991                       # Layer occupancy (ticks)
system.tol2bus.respLayer0.utilization             9.5                       # Layer utilization (%)
system.tol2bus.power_state.pwrStateResidencyTicks::UNDEFINED   1765830000                       # Cumulative time (in ticks) in various power states
system.voltage_domain.voltage                       1                       # Voltage in Volts
system.clk_domain.clock                          1000                       # Clock period in ticks
system.l2.demand_hits::.cpu.inst                49923                       # number of demand (read+write) hits
system.l2.demand_hits::.cpu.data                  589                       # number of demand (read+write) hits
system.l2.demand_hits::.cpu.icache.prefetcher        60492                       # number of demand (read+write) hits
system.l2.demand_hits::total                   111004                       # number of demand (read+write) hits
system.l2.overall_hits::.cpu.inst               49923                       # number of overall hits
system.l2.overall_hits::.cpu.data                 589                       # number of overall hits
system.l2.overall_hits::.cpu.icache.prefetcher        60492                       # number of overall hits
system.l2.overall_hits::total                  111004                       # number of overall hits
system.l2.demand_misses::.cpu.inst               1249                       # number of demand (read+write) misses
system.l2.demand_misses::.cpu.data               8953                       # number of demand (read+write) misses
system.l2.demand_misses::.cpu.icache.prefetcher           14                       # number of demand (read+write) misses
system.l2.demand_misses::total                  10216                       # number of demand (read+write) misses
system.l2.overall_misses::.cpu.inst              1249                       # number of overall misses
system.l2.overall_misses::.cpu.data              8953                       # number of overall misses
system.l2.overall_misses::.cpu.icache.prefetcher           14                       # number of overall misses
system.l2.overall_misses::total                 10216                       # number of overall misses
system.l2.demand_miss_latency::.cpu.inst     97949000                       # number of demand (read+write) miss cycles
system.l2.demand_miss_latency::.cpu.data    701267000                       # number of demand (read+write) miss cycles
system.l2.demand_miss_latency::.cpu.icache.prefetcher      1341486                       # number of demand (read+write) miss cycles
system.l2.demand_miss_latency::total        800557486                       # number of demand (read+write) miss cycles
system.l2.overall_miss_latency::.cpu.inst     97949000                       # number of overall miss cycles
system.l2.overall_miss_latency::.cpu.data    701267000                       # number of overall miss cycles
system.l2.overall_miss_latency::.cpu.icache.prefetcher      1341486                       # number of overall miss cycles
system.l2.overall_miss_latency::total       800557486                       # number of overall miss cycles
system.l2.demand_accesses::.cpu.inst            51172                       # number of demand (read+write) accesses
system.l2.demand_accesses::.cpu.data             9542                       # number of demand (read+write) accesses
system.l2.demand_accesses::.cpu.icache.prefetcher        60506                       # number of demand (read+write) accesses
system.l2.demand_accesses::total               121220                       # number of demand (read+write) accesses
system.l2.overall_accesses::.cpu.inst           51172                       # number of overall (read+write) accesses
system.l2.overall_accesses::.cpu.data            9542                       # number of overall (read+write) accesses
system.l2.overall_accesses::.cpu.icache.prefetcher        60506                       # number of overall (read+write) accesses
system.l2.overall_accesses::total              121220                       # number of overall (read+write) accesses
system.l2.demand_miss_rate::.cpu.inst        0.024408                       # miss rate for demand accesses
system.l2.demand_miss_rate::.cpu.data        0.938273                       # miss rate for demand accesses
system.l2.demand_miss_rate::.cpu.icache.prefetcher     0.000231                       # miss rate for demand accesses
system.l2.demand_miss_rate::total            0.084277                       # miss rate for demand accesses
system.l2.overall_miss_rate::.cpu.inst       0.024408                       # miss rate for overall accesses
system.l2.overall_miss_rate::.cpu.data       0.938273                       # miss rate for overall accesses
system.l2.overall_miss_rate::.cpu.icache.prefetcher     0.000231                       # miss rate for overall accesses
system.l2.overall_miss_rate::total           0.084277                       # miss rate for overall accesses
system.l2.demand_avg_miss_latency::.cpu.inst 78421.937550                       # average overall miss latency
system.l2.demand_avg_miss_latency::.cpu.data 78327.599687                       # average overall miss latency
system.l2.demand_avg_miss_latency::.cpu.icache.prefetcher 95820.428571                       # average overall miss latency
system.l2.demand_avg_miss_latency::total 78363.105521                       # average overall miss latency
system.l2.overall_avg_miss_latency::.cpu.inst 78421.937550                       # average overall miss latency
system.l2.overall_avg_miss_latency::.cpu.data 78327.599687                       # average overall miss latency
system.l2.overall_avg_miss_latency::.cpu.icache.prefetcher 95820.428571                       # average overall miss latency
system.l2.overall_avg_miss_latency::total 78363.105521                       # average overall miss latency
system.l2.blocked_cycles::no_mshrs                  0                       # number of cycles access was blocked
system.l2.blocked_cycles::no_targets                0                       # number of cycles access was blocked
system.l2.blocked::no_mshrs                         0                       # number of cycles access was blocked
system.l2.blocked::no_targets                       0                       # number of cycles access was blocked
system.l2.avg_blocked_cycles::no_mshrs            nan                       # average number of cycles each access was blocked
system.l2.avg_blocked_cycles::no_targets          nan                       # average number of cycles each access was blocked
system.l2.writebacks::.writebacks                 301                       # number of writebacks
system.l2.writebacks::total                       301                       # number of writebacks
system.l2.demand_mshr_misses::.cpu.inst          1249                       # number of demand (read+write) MSHR misses
system.l2.demand_mshr_misses::.cpu.data          8953                       # number of demand (read+write) MSHR misses
system.l2.demand_mshr_misses::.cpu.icache.prefetcher           14                       # number of demand (read+write) MSHR misses
system.l2.demand_mshr_misses::total             10216                       # number of demand (read+write) MSHR misses
system.l2.overall_mshr_misses::.cpu.inst         1249                       # number of overall MSHR misses
system.l2.overall_mshr_misses::.cpu.data         8953                       # number of overall MSHR misses
system.l2.overall_mshr_misses::.cpu.icache.prefetcher           14                       # number of overall MSHR misses
system.l2.overall_mshr_misses::total            10216                       # number of overall MSHR misses
system.l2.demand_mshr_miss_latency::.cpu.inst     85467503                       # number of demand (read+write) MSHR miss cycles
system.l2.demand_mshr_miss_latency::.cpu.data    611736501                       # number of demand (read+write) MSHR miss cycles
system.l2.demand_mshr_miss_latency::.cpu.icache.prefetcher      1201486                       # number of demand (read+write) MSHR miss cycles
system.l2.demand_mshr_miss_latency::total    698405490                       # number of demand (read+write) MSHR miss cycles
system.l2.overall_mshr_miss_latency::.cpu.inst     85467503                       # number of overall MSHR miss cycles
system.l2.overall_mshr_miss_latency::.cpu.data    611736501                       # number of overall MSHR miss cycles
system.l2.overall_mshr_miss_latency::.cpu.icache.prefetcher      1201486                       # number of overall MSHR miss cycles
system.l2.overall_mshr_miss_latency::total    698405490                       # number of overall MSHR miss cycles
system.l2.demand_mshr_miss_rate::.cpu.inst     0.024408                       # mshr miss rate for demand accesses
system.l2.demand_mshr_miss_rate::.cpu.data     0.938273                       # mshr miss rate for demand accesses
system.l2.demand_mshr_miss_rate::.cpu.icache.prefetcher     0.000231                       # mshr miss rate for demand accesses
system.l2.demand_mshr_miss_rate::total       0.084277                       # mshr miss rate for demand accesses
system.l2.overall_mshr_miss_rate::.cpu.inst     0.024408                       # mshr miss rate for overall accesses
system.l2.overall_mshr_miss_rate::.cpu.data     0.938273                       # mshr miss rate for overall accesses
system.l2.overall_mshr_miss_rate::.cpu.icache.prefetcher     0.000231                       # mshr miss rate for overall accesses
system.l2.overall_mshr_miss_rate::total      0.084277                       # mshr miss rate for overall accesses
system.l2.demand_avg_mshr_miss_latency::.cpu.inst 68428.745396                       # average overall mshr miss latency
system.l2.demand_avg_mshr_miss_latency::.cpu.data 68327.543952                       # average overall mshr miss latency
system.l2.demand_avg_mshr_miss_latency::.cpu.icache.prefetcher 85820.428571                       # average overall mshr miss latency
system.l2.demand_avg_mshr_miss_latency::total 68363.888998                       # average overall mshr miss latency
system.l2.overall_avg_mshr_miss_latency::.cpu.inst 68428.745396                       # average overall mshr miss latency
system.l2.overall_avg_mshr_miss_latency::.cpu.data 68327.543952                       # average overall mshr miss latency
system.l2.overall_avg_mshr_miss_latency::.cpu.icache.prefetcher 85820.428571                       # average overall mshr miss latency
system.l2.overall_avg_mshr_miss_latency::total 68363.888998                       # average overall mshr miss latency
system.l2.replacements                            454                       # number of replacements
system.l2.WritebackDirty_hits::.writebacks        25296                       # number of WritebackDirty hits
system.l2.WritebackDirty_hits::total            25296                       # number of WritebackDirty hits
system.l2.WritebackDirty_accesses::.writebacks        25296                       # number of WritebackDirty accesses(hits+misses)
system.l2.WritebackDirty_accesses::total        25296                       # number of WritebackDirty accesses(hits+misses)
system.l2.WritebackClean_hits::.writebacks       111599                       # number of WritebackClean hits
system.l2.WritebackClean_hits::total           111599                       # number of WritebackClean hits
system.l2.WritebackClean_accesses::.writebacks       111599                       # number of WritebackClean accesses(hits+misses)
system.l2.WritebackClean_accesses::total       111599                       # number of WritebackClean accesses(hits+misses)
system.l2.ReadExReq_hits::.cpu.data               156                       # number of ReadExReq hits
system.l2.ReadExReq_hits::total                   156                       # number of ReadExReq hits
system.l2.ReadExReq_misses::.cpu.data            8337                       # number of ReadExReq misses
system.l2.ReadExReq_misses::total                8337                       # number of ReadExReq misses
system.l2.ReadExReq_miss_latency::.cpu.data    651883000                       # number of ReadExReq miss cycles
system.l2.ReadExReq_miss_latency::total     651883000                       # number of ReadExReq miss cycles
system.l2.ReadExReq_accesses::.cpu.data          8493                       # number of ReadExReq accesses(hits+misses)
system.l2.ReadExReq_accesses::total              8493                       # number of ReadExReq accesses(hits+misses)
[...]
system.cpu.dcache.demand_accesses::.cpu.data       914698                       # number of demand (read+write) accesses
system.cpu.dcache.demand_accesses::total       914698                       # number of demand (read+write) accesses
system.cpu.dcache.overall_accesses::.cpu.data       914755                       # number of overall (read+write) accesses
system.cpu.dcache.overall_accesses::total       914755                       # number of overall (read+write) accesses
system.cpu.dcache.demand_miss_rate::.cpu.data     0.057500                       # miss rate for demand accesses
system.cpu.dcache.demand_miss_rate::total     0.057500                       # miss rate for demand accesses
system.cpu.dcache.overall_miss_rate::.cpu.data     0.057502                       # miss rate for overall accesses
system.cpu.dcache.overall_miss_rate::total     0.057502                       # miss rate for overall accesses
system.cpu.dcache.demand_avg_miss_latency::.cpu.data 50401.556536                       # average overall miss latency
system.cpu.dcache.demand_avg_miss_latency::total 50401.556536                       # average overall miss latency
system.cpu.dcache.overall_avg_miss_latency::.cpu.data 50396.765513                       # average overall miss latency
system.cpu.dcache.overall_avg_miss_latency::total 50396.765513                       # average overall miss latency
system.cpu.dcache.blocked_cycles::no_mshrs       265159                       # number of cycles access was blocked
system.cpu.dcache.blocked_cycles::no_targets            0                       # number of cycles access was blocked
system.cpu.dcache.blocked::no_mshrs             16102                       # number of cycles access was blocked
system.cpu.dcache.blocked::no_targets               0                       # number of cycles access was blocked
system.cpu.dcache.avg_blocked_cycles::no_mshrs    16.467457                       # average number of cycles each access was blocked
system.cpu.dcache.avg_blocked_cycles::no_targets          nan                       # average number of cycles each access was blocked
system.cpu.dcache.writebacks::.writebacks        25296                       # number of writebacks
system.cpu.dcache.writebacks::total             25296                       # number of writebacks
system.cpu.dcache.demand_mshr_hits::.cpu.data        25849                       # number of demand (read+write) MSHR hits
system.cpu.dcache.demand_mshr_hits::total        25849                       # number of demand (read+write) MSHR hits
system.cpu.dcache.overall_mshr_hits::.cpu.data        25849                       # number of overall MSHR hits
system.cpu.dcache.overall_mshr_hits::total        25849                       # number of overall MSHR hits
system.cpu.dcache.demand_mshr_misses::.cpu.data        26746                       # number of demand (read+write) MSHR misses
system.cpu.dcache.demand_mshr_misses::total        26746                       # number of demand (read+write) MSHR misses
system.cpu.dcache.overall_mshr_misses::.cpu.data        26748                       # number of overall MSHR misses
system.cpu.dcache.overall_mshr_misses::total        26748                       # number of overall MSHR misses
system.cpu.dcache.demand_mshr_miss_latency::.cpu.data   1269560245                       # number of demand (read+write) MSHR miss cycles
system.cpu.dcache.demand_mshr_miss_latency::total   1269560245                       # number of demand (read+write) MSHR miss cycles
system.cpu.dcache.overall_mshr_miss_latency::.cpu.data   1269744745                       # number of overall MSHR miss cycles
system.cpu.dcache.overall_mshr_miss_latency::total   1269744745                       # number of overall MSHR miss cycles
system.cpu.dcache.demand_mshr_miss_rate::.cpu.data     0.029240                       # mshr miss rate for demand accesses
system.cpu.dcache.demand_mshr_miss_rate::total     0.029240                       # mshr miss rate for demand accesses
system.cpu.dcache.overall_mshr_miss_rate::.cpu.data     0.029241                       # mshr miss rate for overall accesses
system.cpu.dcache.overall_mshr_miss_rate::total     0.029241                       # mshr miss rate for overall accesses
system.cpu.dcache.demand_avg_mshr_miss_latency::.cpu.data 47467.293988                       # average overall mshr miss latency
system.cpu.dcache.demand_avg_mshr_miss_latency::total 47467.293988                       # average overall mshr miss latency
system.cpu.dcache.overall_avg_mshr_miss_latency::.cpu.data 47470.642478                       # average overall mshr miss latency
system.cpu.dcache.overall_avg_mshr_miss_latency::total 47470.642478                       # average overall mshr miss latency
system.cpu.dcache.replacements                  25727                       # number of replacements
system.cpu.dcache.ReadReq_hits::.cpu.data       477405                       # number of ReadReq hits
system.cpu.dcache.ReadReq_hits::total          477405                       # number of ReadReq hits
system.cpu.dcache.ReadReq_misses::.cpu.data         2768                       # number of ReadReq misses
system.cpu.dcache.ReadReq_misses::total          2768                       # number of ReadReq misses
system.cpu.dcache.ReadReq_miss_latency::.cpu.data    145270500                       # number of ReadReq miss cycles
system.cpu.dcache.ReadReq_miss_latency::total    145270500                       # number of ReadReq miss cycles
system.cpu.dcache.ReadReq_accesses::.cpu.data       480173                       # number of ReadReq accesses(hits+misses)
system.cpu.dcache.ReadReq_accesses::total       480173                       # number of ReadReq accesses(hits+misses)
system.cpu.dcache.ReadReq_miss_rate::.cpu.data     0.005765                       # miss rate for ReadReq accesses
system.cpu.dcache.ReadReq_miss_rate::total     0.005765                       # miss rate for ReadReq accesses
system.cpu.dcache.ReadReq_avg_miss_latency::.cpu.data 52482.117052                       # average ReadReq miss latency
system.cpu.dcache.ReadReq_avg_miss_latency::total 52482.117052                       # average ReadReq miss latency
system.cpu.dcache.ReadReq_mshr_hits::.cpu.data         1723                       # number of ReadReq MSHR hits
system.cpu.dcache.ReadReq_mshr_hits::total         1723                       # number of ReadReq MSHR hits
system.cpu.dcache.ReadReq_mshr_misses::.cpu.data         1045                       # number of ReadReq MSHR misses
system.cpu.dcache.ReadReq_mshr_misses::total         1045                       # number of ReadReq MSHR misses
system.cpu.dcache.ReadReq_mshr_miss_latency::.cpu.data     55423500                       # number of ReadReq MSHR miss cycles
system.cpu.dcache.ReadReq_mshr_miss_latency::total     55423500                       # number of ReadReq MSHR miss cycles
system.cpu.dcache.ReadReq_mshr_miss_rate::.cpu.data     0.002176                       # mshr miss rate for ReadReq accesses
system.cpu.dcache.ReadReq_mshr_miss_rate::total     0.002176                       # mshr miss rate for ReadReq accesses
system.cpu.dcache.ReadReq_avg_mshr_miss_latency::.cpu.data 53036.842105                       # average ReadReq mshr miss latency
system.cpu.dcache.ReadReq_avg_mshr_miss_latency::total 53036.842105                       # average ReadReq mshr miss latency
system.cpu.dcache.WriteReq_hits::.cpu.data       384409                       # number of WriteReq hits
system.cpu.dcache.WriteReq_hits::total         384409                       # number of WriteReq hits
system.cpu.dcache.WriteReq_misses::.cpu.data        33198                       # number of WriteReq misses
system.cpu.dcache.WriteReq_misses::total        33198                       # number of WriteReq misses
system.cpu.dcache.WriteReq_miss_latency::.cpu.data   1959812557                       # number of WriteReq miss cycles
system.cpu.dcache.WriteReq_miss_latency::total   1959812557                       # number of WriteReq miss cycles
system.cpu.dcache.WriteReq_accesses::.cpu.data       417607                       # number of WriteReq accesses(hits+misses)
system.cpu.dcache.WriteReq_accesses::total       417607                       # number of WriteReq accesses(hits+misses)
system.cpu.dcache.WriteReq_miss_rate::.cpu.data     0.079496                       # miss rate for WriteReq accesses
system.cpu.dcache.WriteReq_miss_rate::total     0.079496                       # miss rate for WriteReq accesses
system.cpu.dcache.WriteReq_avg_miss_latency::.cpu.data 59034.054973                       # average WriteReq miss latency
system.cpu.dcache.WriteReq_avg_miss_latency::total 59034.054973                       # average WriteReq miss latency
system.cpu.dcache.WriteReq_mshr_hits::.cpu.data        24126                       # number of WriteReq MSHR hits
system.cpu.dcache.WriteReq_mshr_hits::total        24126                       # number of WriteReq MSHR hits
system.cpu.dcache.WriteReq_mshr_misses::.cpu.data         9072                       # number of WriteReq MSHR misses
system.cpu.dcache.WriteReq_mshr_misses::total         9072                       # number of WriteReq MSHR misses
system.cpu.dcache.WriteReq_mshr_miss_latency::.cpu.data    684978936                       # number of WriteReq MSHR miss cycles
system.cpu.dcache.WriteReq_mshr_miss_latency::total    684978936                       # number of WriteReq MSHR miss cycles
system.cpu.dcache.WriteReq_mshr_miss_rate::.cpu.data     0.021724                       # mshr miss rate for WriteReq accesses
system.cpu.dcache.WriteReq_mshr_miss_rate::total     0.021724                       # mshr miss rate for WriteReq accesses
system.cpu.dcache.WriteReq_avg_mshr_miss_latency::.cpu.data 75504.732804                       # average WriteReq mshr miss latency
system.cpu.dcache.WriteReq_avg_mshr_miss_latency::total 75504.732804                       # average WriteReq mshr miss latency
system.cpu.dcache.SoftPFReq_hits::.cpu.data           52                       # number of SoftPFReq hits
system.cpu.dcache.SoftPFReq_hits::total            52                       # number of SoftPFReq hits
system.cpu.dcache.SoftPFReq_misses::.cpu.data            5                       # number of SoftPFReq misses
system.cpu.dcache.SoftPFReq_misses::total            5                       # number of SoftPFReq misses
system.cpu.dcache.SoftPFReq_accesses::.cpu.data           57                       # number of SoftPFReq accesses(hits+misses)
system.cpu.dcache.SoftPFReq_accesses::total           57                       # number of SoftPFReq accesses(hits+misses)
system.cpu.dcache.SoftPFReq_miss_rate::.cpu.data     0.087719                       # miss rate for SoftPFReq accesses
system.cpu.dcache.SoftPFReq_miss_rate::total     0.087719                       # miss rate for SoftPFReq accesses
system.cpu.dcache.SoftPFReq_mshr_misses::.cpu.data            2                       # number of SoftPFReq MSHR misses
system.cpu.dcache.SoftPFReq_mshr_misses::total            2                       # number of SoftPFReq MSHR misses
system.cpu.dcache.SoftPFReq_mshr_miss_latency::.cpu.data       184500                       # number of SoftPFReq MSHR miss cycles
system.cpu.dcache.SoftPFReq_mshr_miss_latency::total       184500                       # number of SoftPFReq MSHR miss cycles
system.cpu.dcache.SoftPFReq_mshr_miss_rate::.cpu.data     0.035088                       # mshr miss rate for SoftPFReq accesses
system.cpu.dcache.SoftPFReq_mshr_miss_rate::total     0.035088                       # mshr miss rate for SoftPFReq accesses
system.cpu.dcache.SoftPFReq_avg_mshr_miss_latency::.cpu.data        92250                       # average SoftPFReq mshr miss latency
system.cpu.dcache.SoftPFReq_avg_mshr_miss_latency::total        92250                       # average SoftPFReq mshr miss latency
system.cpu.dcache.WriteLineReq_hits::.cpu.data          289                       # number of WriteLineReq hits
system.cpu.dcache.WriteLineReq_hits::total          289                       # number of WriteLineReq hits
system.cpu.dcache.WriteLineReq_misses::.cpu.data        16629                       # number of WriteLineReq misses
system.cpu.dcache.WriteLineReq_misses::total        16629                       # number of WriteLineReq misses
system.cpu.dcache.WriteLineReq_miss_latency::.cpu.data    545786809                       # number of WriteLineReq miss cycles
system.cpu.dcache.WriteLineReq_miss_latency::total    545786809                       # number of WriteLineReq miss cycles
system.cpu.dcache.WriteLineReq_accesses::.cpu.data        16918                       # number of WriteLineReq accesses(hits+misses)
system.cpu.dcache.WriteLineReq_accesses::total        16918                       # number of WriteLineReq accesses(hits+misses)
system.cpu.dcache.WriteLineReq_miss_rate::.cpu.data     0.982918                       # miss rate for WriteLineReq accesses
system.cpu.dcache.WriteLineReq_miss_rate::total     0.982918                       # miss rate for WriteLineReq accesses
system.cpu.dcache.WriteLineReq_avg_miss_latency::.cpu.data 32821.384870                       # average WriteLineReq miss latency
system.cpu.dcache.WriteLineReq_avg_miss_latency::total 32821.384870                       # average WriteLineReq miss latency
system.cpu.dcache.WriteLineReq_mshr_misses::.cpu.data        16629                       # number of WriteLineReq MSHR misses
system.cpu.dcache.WriteLineReq_mshr_misses::total        16629                       # number of WriteLineReq MSHR misses
system.cpu.dcache.WriteLineReq_mshr_miss_latency::.cpu.data    529157809                       # number of WriteLineReq MSHR miss cycles
system.cpu.dcache.WriteLineReq_mshr_miss_latency::total    529157809                       # number of WriteLineReq MSHR miss cycles
system.cpu.dcache.WriteLineReq_mshr_miss_rate::.cpu.data     0.982918                       # mshr miss rate for WriteLineReq accesses
system.cpu.dcache.WriteLineReq_mshr_miss_rate::total     0.982918                       # mshr miss rate for WriteLineReq accesses
system.cpu.dcache.WriteLineReq_avg_mshr_miss_latency::.cpu.data 31821.384870                       # average WriteLineReq mshr miss latency
system.cpu.dcache.WriteLineReq_avg_mshr_miss_latency::total 31821.384870                       # average WriteLineReq mshr miss latency
system.cpu.dcache.LoadLockedReq_hits::.cpu.data          295                       # number of LoadLockedReq hits
system.cpu.dcache.LoadLockedReq_hits::total          295                       # number of LoadLockedReq hits
system.cpu.dcache.LoadLockedReq_misses::.cpu.data            6                       # number of LoadLockedReq misses
system.cpu.dcache.LoadLockedReq_misses::total            6                       # number of LoadLockedReq misses
system.cpu.dcache.LoadLockedReq_miss_latency::.cpu.data       315000                       # number of LoadLockedReq miss cycles
system.cpu.dcache.LoadLockedReq_miss_latency::total       315000                       # number of LoadLockedReq miss cycles
system.cpu.dcache.LoadLockedReq_accesses::.cpu.data          301                       # number of LoadLockedReq accesses(hits+misses)
system.cpu.dcache.LoadLockedReq_accesses::total          301                       # number of LoadLockedReq accesses(hits+misses)
system.cpu.dcache.LoadLockedReq_miss_rate::.cpu.data     0.019934                       # miss rate for LoadLockedReq accesses
system.cpu.dcache.LoadLockedReq_miss_rate::total     0.019934                       # miss rate for LoadLockedReq accesses
system.cpu.dcache.LoadLockedReq_avg_miss_latency::.cpu.data        52500                       # average LoadLockedReq miss latency
system.cpu.dcache.LoadLockedReq_avg_miss_latency::total        52500                       # average LoadLockedReq miss latency
system.cpu.dcache.LoadLockedReq_mshr_hits::.cpu.data            3                       # number of LoadLockedReq MSHR hits
system.cpu.dcache.LoadLockedReq_mshr_hits::total            3                       # number of LoadLockedReq MSHR hits
system.cpu.dcache.LoadLockedReq_mshr_misses::.cpu.data            3                       # number of LoadLockedReq MSHR misses
system.cpu.dcache.LoadLockedReq_mshr_misses::total            3                       # number of LoadLockedReq MSHR misses
system.cpu.dcache.LoadLockedReq_mshr_miss_latency::.cpu.data       124000                       # number of LoadLockedReq MSHR miss cycles
system.cpu.dcache.LoadLockedReq_mshr_miss_latency::total       124000                       # number of LoadLockedReq MSHR miss cycles
system.cpu.dcache.LoadLockedReq_mshr_miss_rate::.cpu.data     0.009967                       # mshr miss rate for LoadLockedReq accesses
system.cpu.dcache.LoadLockedReq_mshr_miss_rate::total     0.009967                       # mshr miss rate for LoadLockedReq accesses
system.cpu.dcache.LoadLockedReq_avg_mshr_miss_latency::.cpu.data 41333.333333                       # average LoadLockedReq mshr miss latency
system.cpu.dcache.LoadLockedReq_avg_mshr_miss_latency::total 41333.333333                       # average LoadLockedReq mshr miss latency
system.cpu.dcache.StoreCondReq_hits::.cpu.data          278                       # number of StoreCondReq hits
system.cpu.dcache.StoreCondReq_hits::total          278                       # number of StoreCondReq hits
system.cpu.dcache.StoreCondReq_accesses::.cpu.data          278                       # number of StoreCondReq accesses(hits+misses)
system.cpu.dcache.StoreCondReq_accesses::total          278                       # number of StoreCondReq accesses(hits+misses)
system.cpu.dcache.power_state.pwrStateResidencyTicks::UNDEFINED   1765830000                       # Cumulative time (in ticks) in various power states
system.cpu.dcache.tags.tagsinuse           972.656844                       # Cycle average of tags in use
system.cpu.dcache.tags.total_refs              889479                       # Total number of references to valid blocks.
system.cpu.dcache.tags.sampled_refs             26751                       # Sample count of references to valid blocks.
system.cpu.dcache.tags.avg_refs             33.250308                       # Average number of references to valid blocks.
system.cpu.dcache.tags.warmup_cycle            176500                       # Cycle when the warmup percentage was hit.
system.cpu.dcache.tags.occ_blocks::.cpu.data   972.656844                       # Average occupied blocks per requestor
system.cpu.dcache.tags.occ_percent::.cpu.data     0.949860                       # Average percentage of cache occupancy
system.cpu.dcache.tags.occ_percent::total     0.949860                       # Average percentage of cache occupancy
system.cpu.dcache.tags.occ_task_id_blocks::1024         1024                       # Occupied blocks per task id
system.cpu.dcache.tags.age_task_id_blocks_1024::0           60                       # Occupied blocks per task id
system.cpu.dcache.tags.age_task_id_blocks_1024::1          583                       # Occupied blocks per task id
system.cpu.dcache.tags.age_task_id_blocks_1024::2          381                       # Occupied blocks per task id
system.cpu.dcache.tags.occ_task_id_percent::1024            1                       # Percentage of cache occupancy per task id
system.cpu.dcache.tags.tag_accesses           1857419                       # Number of tag accesses
system.cpu.dcache.tags.data_accesses          1857419                       # Number of data accesses
system.cpu.dcache.tags.power_state.pwrStateResidencyTicks::UNDEFINED   1765830000                       # Cumulative time (in ticks) in various power states
system.cpu.power_state.pwrStateResidencyTicks::ON   1765830000                       # Cumulative time (in ticks) in various power states

---------- End Simulation Statistics   ----------
