
---------- Begin Simulation Statistics ----------
final_tick                                 9303131000                       # Number of ticks from beginning of simulation (restored from checkpoints and never reset)
host_inst_rate                                 125165                       # Simulator instruction rate (inst/s)
host_mem_usage                                 870388                       # Number of bytes of host memory used
host_op_rate                                   125212                       # Simulator op (including micro ops) rate (op/s)
host_seconds                                    79.89                       # Real time elapsed on the host
host_tick_rate                              116442471                       # Simulator tick rate (ticks/s)
sim_freq                                 1000000000000                       # Frequency of simulated ticks
sim_insts                                    10000003                       # Number of instructions simulated
sim_ops                                      10003757                       # Number of ops (including micro ops) simulated
sim_seconds                                  0.009303                       # Number of seconds simulated
sim_ticks                                  9303131000                       # Number of ticks simulated
system.cpu.branchPred.BTBCorrect                    0                       # Number of correct BTB predictions (this stat may not work properly.
system.cpu.branchPred.BTBHitPct             99.955855                       # BTB Hit Percentage
system.cpu.branchPred.BTBHits                 1596289                       # Number of BTB hits
system.cpu.branchPred.BTBLookups              1596994                       # Number of BTB lookups
system.cpu.branchPred.RASInCorrect                  1                       # Number of incorrect RAS predictions.
system.cpu.branchPred.condIncorrect               884                       # Number of conditional branches incorrect
system.cpu.branchPred.condPredicted           1598354                       # Number of conditional branches predicted
system.cpu.branchPred.indirectHits                  0                       # Number of indirect target hits.
system.cpu.branchPred.indirectLookups             138                       # Number of indirect predictor lookups.
system.cpu.branchPred.indirectMisses              138                       # Number of indirect misses.
system.cpu.branchPred.lookups                 1606815                       # Number of BP lookups
system.cpu.branchPred.usedRAS                    2769                       # Number of times the RAS was used to get a target.
system.cpu.branchPredindirectMispredicted           42                       # Number of mispredicted indirect branches.
system.cpu.cc_regfile_reads                   4675908                       # number of cc regfile reads
system.cpu.cc_regfile_writes                  4676184                       # number of cc regfile writes
system.cpu.commit.amos                              0                       # Number of atomic instructions committed
system.cpu.commit.branchMispredicts               686                       # The number of times a branch was mispredicted
system.cpu.commit.branches                    1479051                       # Number of branches committed
system.cpu.commit.bw_lim_events                771754                       # number cycles where commit BW limit reached
system.cpu.commit.commitNonSpecStalls              26                       # The number of times commit has been forced to stall to communicate backwards
system.cpu.commit.commitSquashedInsts          615441                       # The number of squashed insts skipped by commit
system.cpu.commit.committedInsts             10000214                       # Number of instructions committed
system.cpu.commit.committedOps               10003968                       # Number of ops (including micro ops) committed
system.cpu.commit.committed_per_cycle::samples     18496577                       # Number of insts commited each cycle
system.cpu.commit.committed_per_cycle::mean     0.540855                       # Number of insts commited each cycle
system.cpu.commit.committed_per_cycle::stdev     1.841920                       # Number of insts commited each cycle
system.cpu.commit.committed_per_cycle::underflows            0      0.00%      0.00% # Number of insts commited each cycle
system.cpu.commit.committed_per_cycle::0     16668419     90.12%     90.12% # Number of insts commited each cycle
system.cpu.commit.committed_per_cycle::1       287331      1.55%     91.67% # Number of insts commited each cycle
system.cpu.commit.committed_per_cycle::2       151067      0.82%     92.49% # Number of insts commited each cycle
system.cpu.commit.committed_per_cycle::3       116100      0.63%     93.11% # Number of insts commited each cycle
system.cpu.commit.committed_per_cycle::4        30506      0.16%     93.28% # Number of insts commited each cycle
system.cpu.commit.committed_per_cycle::5        66767      0.36%     93.64% # Number of insts commited each cycle
system.cpu.commit.committed_per_cycle::6       396119      2.14%     95.78% # Number of insts commited each cycle
system.cpu.commit.committed_per_cycle::7         8514      0.05%     95.83% # Number of insts commited each cycle
system.cpu.commit.committed_per_cycle::8       771754      4.17%    100.00% # Number of insts commited each cycle
system.cpu.commit.committed_per_cycle::overflows            0      0.00%    100.00% # Number of insts commited each cycle
system.cpu.commit.committed_per_cycle::min_value            0                       # Number of insts commited each cycle
system.cpu.commit.committed_per_cycle::max_value            8                       # Number of insts commited each cycle
system.cpu.commit.committed_per_cycle::total     18496577                       # Number of insts commited each cycle
system.cpu.commit.fp_insts                          0                       # Number of committed floating point instructions.
system.cpu.commit.function_calls                 2417                       # Number of function calls committed.
system.cpu.commit.int_insts                   8532200                       # Number of committed integer instructions.
system.cpu.commit.loads                       2926492                       # Number of loads committed
system.cpu.commit.membars                          16                       # Number of memory barriers committed
system.cpu.commit.op_class_0::No_OpClass            4      0.00%      0.00% # Class of committed instruction
system.cpu.commit.op_class_0::IntAlu          5610050     56.08%     56.08% # Class of committed instruction
system.cpu.commit.op_class_0::IntMult             449      0.00%     56.08% # Class of committed instruction
system.cpu.commit.op_class_0::IntDiv                2      0.00%     56.08% # Class of committed instruction
system.cpu.commit.op_class_0::FloatAdd              0      0.00%     56.08% # Class of committed instruction
system.cpu.commit.op_class_0::FloatCmp              0      0.00%     56.08% # Class of committed instruction
system.cpu.commit.op_class_0::FloatCvt              0      0.00%     56.08% # Class of committed instruction
system.cpu.commit.op_class_0::FloatMult             0      0.00%     56.08% # Class of committed instruction
system.cpu.commit.op_class_0::FloatMultAcc            0      0.00%     56.08% # Class of committed instruction
system.cpu.commit.op_class_0::FloatDiv              0      0.00%     56.08% # Class of committed instruction
system.cpu.commit.op_class_0::FloatMisc             1      0.00%     56.08% # Class of committed instruction
system.cpu.commit.op_class_0::FloatSqrt             0      0.00%     56.08% # Class of committed instruction
system.cpu.commit.op_class_0::SimdAdd              19      0.00%     56.08% # Class of committed instruction
system.cpu.commit.op_class_0::SimdAddAcc            0      0.00%     56.08% # Class of committed instruction
system.cpu.commit.op_class_0::SimdAlu              12      0.00%     56.08% # Class of committed instruction
system.cpu.commit.op_class_0::SimdCmp              16      0.00%     56.08% # Class of committed instruction
system.cpu.commit.op_class_0::SimdCvt               0      0.00%     56.08% # Class of committed instruction
system.cpu.commit.op_class_0::SimdMisc             16      0.00%     56.08% # Class of committed instruction
system.cpu.commit.op_class_0::SimdMult              0      0.00%     56.08% # Class of committed instruction
system.cpu.commit.op_class_0::SimdMultAcc            0      0.00%     56.08% # Class of committed instruction
system.cpu.commit.op_class_0::SimdShift             0      0.00%     56.08% # Class of committed instruction
system.cpu.commit.op_class_0::SimdShiftAcc            0      0.00%     56.08% # Class of committed instruction
system.cpu.commit.op_class_0::SimdDiv               0      0.00%     56.08% # Class of committed instruction
system.cpu.commit.op_class_0::SimdSqrt              0      0.00%     56.08% # Class of committed instruction
system.cpu.commit.op_class_0::SimdFloatAdd            0      0.00%     56.08% # Class of committed instruction
system.cpu.commit.op_class_0::SimdFloatAlu            0      0.00%     56.08% # Class of committed instruction
system.cpu.commit.op_class_0::SimdFloatCmp            0      0.00%     56.08% # Class of committed instruction
system.cpu.commit.op_class_0::SimdFloatCvt            0      0.00%     56.08% # Class of committed instruction
system.cpu.commit.op_class_0::SimdFloatDiv            0      0.00%     56.08% # Class of committed instruction
system.cpu.commit.op_class_0::SimdFloatMisc            0      0.00%     56.08% # Class of committed instruction
system.cpu.commit.op_class_0::SimdFloatMult            0      0.00%     56.08% # Class of committed instruction
system.cpu.commit.op_class_0::SimdFloatMultAcc            0      0.00%     56.08% # Class of committed instruction
system.cpu.commit.op_class_0::SimdFloatSqrt            0      0.00%     56.08% # Class of committed instruction
system.cpu.commit.op_class_0::SimdReduceAdd            0      0.00%     56.08% # Class of committed instruction
system.cpu.commit.op_class_0::SimdReduceAlu            0      0.00%     56.08% # Class of committed instruction
system.cpu.commit.op_class_0::SimdReduceCmp            0      0.00%     56.08% # Class of committed instruction
system.cpu.commit.op_class_0::SimdFloatReduceAdd            0      0.00%     56.08% # Class of committed instruction
system.cpu.commit.op_class_0::SimdFloatReduceCmp            0      0.00%     56.08% # Class of committed instruction
system.cpu.commit.op_class_0::SimdAes               0      0.00%     56.08% # Class of committed instruction
system.cpu.commit.op_class_0::SimdAesMix            0      0.00%     56.08% # Class of committed instruction
system.cpu.commit.op_class_0::SimdSha1Hash            0      0.00%     56.08% # Class of committed instruction
system.cpu.commit.op_class_0::SimdSha1Hash2            0      0.00%     56.08% # Class of committed instruction
system.cpu.commit.op_class_0::SimdSha256Hash            0      0.00%     56.08% # Class of committed instruction
system.cpu.commit.op_class_0::SimdSha256Hash2            0      0.00%     56.08% # Class of committed instruction
system.cpu.commit.op_class_0::SimdShaSigma2            0      0.00%     56.08% # Class of committed instruction
system.cpu.commit.op_class_0::SimdShaSigma3            0      0.00%     56.08% # Class of committed instruction
system.cpu.commit.op_class_0::SimdPredAlu            0      0.00%     56.08% # Class of committed instruction
system.cpu.commit.op_class_0::MemRead         2926492     29.25%     85.34% # Class of committed instruction
system.cpu.commit.op_class_0::MemWrite        1466907     14.66%    100.00% # Class of committed instruction
system.cpu.commit.op_class_0::FloatMemRead            0      0.00%    100.00% # Class of committed instruction
system.cpu.commit.op_class_0::FloatMemWrite            0      0.00%    100.00% # Class of committed instruction
system.cpu.commit.op_class_0::IprAccess             0      0.00%    100.00% # Class of committed instruction
system.cpu.commit.op_class_0::InstPrefetch            0      0.00%    100.00% # Class of committed instruction
system.cpu.commit.op_class_0::total          10003968                       # Class of committed instruction
system.cpu.commit.refs                        4393399                       # Number of memory references committed
system.cpu.commit.swp_count                         0                       # Number of s/w prefetches committed
system.cpu.commit.vec_insts                       248                       # Number of committed Vector instructions.
system.cpu.committedInsts                    10000003                       # Number of Instructions Simulated
system.cpu.committedOps                      10003757                       # Number of Ops (including micro ops) Simulated
system.cpu.cpi                               1.860626                       # CPI: Cycles Per Instruction
system.cpu.cpi_total                         1.860626                       # CPI: Total CPI of All Threads
system.cpu.decode.BlockedCycles              16491239                       # Number of cycles decode is blocked
system.cpu.decode.BranchMispred                   204                       # Number of times decode detected a branch misprediction
system.cpu.decode.BranchResolved              1564288                       # Number of times decode resolved a branch
system.cpu.decode.DecodedInsts               10676013                       # Number of instructions handled by decode
system.cpu.decode.IdleCycles                   521402                       # Number of cycles decode is idle
system.cpu.decode.RunCycles                   1283539                       # Number of cycles decode is running
system.cpu.decode.SquashCycles                   5808                       # Number of cycles decode is squashing
system.cpu.decode.SquashedInsts                   684                       # Number of squashed instructions handled by decode
system.cpu.decode.UnblockCycles                274294                       # Number of cycles decode is unblocking
system.cpu.dtb.accesses                             0                       # DTB accesses
system.cpu.dtb.align_faults                         0                       # Number of TLB faults due to alignment restrictions
system.cpu.dtb.domain_faults                        0                       # Number of TLB faults due to domain restrictions
system.cpu.dtb.flush_entries                        0                       # Number of entries that have been flushed from TLB
system.cpu.dtb.flush_tlb                            0                       # Number of times complete TLB was flushed
system.cpu.dtb.flush_tlb_asid                       0                       # Number of times TLB was flushed by ASID
system.cpu.dtb.flush_tlb_mva                        0                       # Number of times TLB was flushed by MVA
system.cpu.dtb.flush_tlb_mva_asid                   0                       # Number of times TLB was flushed by MVA & ASID
system.cpu.dtb.hits                                 0                       # DTB hits
system.cpu.dtb.inst_accesses                        0                       # ITB inst accesses
system.cpu.dtb.inst_hits                            0                       # ITB inst hits
system.cpu.dtb.inst_misses                          0                       # ITB inst misses
system.cpu.dtb.misses                               0                       # DTB misses
system.cpu.dtb.perms_faults                         0                       # Number of TLB faults due to permissions restrictions
system.cpu.dtb.prefetch_faults                      0                       # Number of TLB faults due to prefetch
system.cpu.dtb.read_accesses                        0                       # DTB read accesses
system.cpu.dtb.read_hits                            0                       # DTB read hits
system.cpu.dtb.read_misses                          0                       # DTB read misses
system.cpu.dtb.stage2_mmu.stage2_tlb.accesses            0                       # DTB accesses
system.cpu.dtb.stage2_mmu.stage2_tlb.align_faults            0                       # Number of TLB faults due to alignment restrictions
system.cpu.dtb.stage2_mmu.stage2_tlb.domain_faults            0                       # Number of TLB faults due to domain restrictions
system.cpu.dtb.stage2_mmu.stage2_tlb.flush_entries            0                       # Number of entries that have been flushed from TLB
system.cpu.dtb.stage2_mmu.stage2_tlb.flush_tlb            0                       # Number of times complete TLB was flushed
system.cpu.dtb.stage2_mmu.stage2_tlb.flush_tlb_asid            0                       # Number of times TLB was flushed by ASID
system.cpu.dtb.stage2_mmu.stage2_tlb.flush_tlb_mva            0                       # Number of times TLB was flushed by MVA
system.cpu.dtb.stage2_mmu.stage2_tlb.flush_tlb_mva_asid            0                       # Number of times TLB was flushed by MVA & ASID
system.cpu.dtb.stage2_mmu.stage2_tlb.hits            0                       # DTB hits
system.cpu.dtb.stage2_mmu.stage2_tlb.inst_accesses            0                       # ITB inst accesses
system.cpu.dtb.stage2_mmu.stage2_tlb.inst_hits            0                       # ITB inst hits
system.cpu.dtb.stage2_mmu.stage2_tlb.inst_misses            0                       # ITB inst misses
system.cpu.dtb.stage2_mmu.stage2_tlb.misses            0                       # DTB misses
system.cpu.dtb.stage2_mmu.stage2_tlb.perms_faults            0                       # Number of TLB faults due to permissions restrictions
system.cpu.dtb.stage2_mmu.stage2_tlb.prefetch_faults            0                       # Number of TLB faults due to prefetch
system.cpu.dtb.stage2_mmu.stage2_tlb.read_accesses            0                       # DTB read accesses
system.cpu.dtb.stage2_mmu.stage2_tlb.read_hits            0                       # DTB read hits
system.cpu.dtb.stage2_mmu.stage2_tlb.read_misses            0                       # DTB read misses
system.cpu.dtb.stage2_mmu.stage2_tlb.walker.walkRequestOrigin_Requested::Data            0                       # Table walker requests started/completed, data/inst
system.cpu.dtb.stage2_mmu.stage2_tlb.walker.walkRequestOrigin_Requested::Inst            0                       # Table walker requests started/completed, data/inst
system.cpu.dtb.stage2_mmu.stage2_tlb.walker.walkRequestOrigin_Requested::total            0                       # Table walker requests started/completed, data/inst
system.cpu.dtb.stage2_mmu.stage2_tlb.walker.walkRequestOrigin_Completed::Data            0                       # Table walker requests started/completed, data/inst
system.cpu.dtb.stage2_mmu.stage2_tlb.walker.walkRequestOrigin_Completed::Inst            0                       # Table walker requests started/completed, data/inst
system.cpu.dtb.stage2_mmu.stage2_tlb.walker.walkRequestOrigin_Completed::total            0                       # Table walker requests started/completed, data/inst
system.cpu.dtb.stage2_mmu.stage2_tlb.walker.walkRequestOrigin::total            0                       # Table walker requests started/completed, data/inst
system.cpu.dtb.stage2_mmu.stage2_tlb.walker.walks            0                       # Table walker walks requested
system.cpu.dtb.stage2_mmu.stage2_tlb.write_accesses            0                       # DTB write accesses
system.cpu.dtb.stage2_mmu.stage2_tlb.write_hits            0                       # DTB write hits
system.cpu.dtb.stage2_mmu.stage2_tlb.write_misses            0                       # DTB write misses
system.cpu.dtb.walker.walkRequestOrigin_Requested::Data            0                       # Table walker requests started/completed, data/inst
system.cpu.dtb.walker.walkRequestOrigin_Requested::Inst            0                       # Table walker requests started/completed, data/inst
system.cpu.dtb.walker.walkRequestOrigin_Requested::total            0                       # Table walker requests started/completed, data/inst
system.cpu.dtb.walker.walkRequestOrigin_Completed::Data            0                       # Table walker requests started/completed, data/inst
system.cpu.dtb.walker.walkRequestOrigin_Completed::Inst            0                       # Table walker requests started/completed, data/inst
system.cpu.dtb.walker.walkRequestOrigin_Completed::total            0                       # Table walker requests started/completed, data/inst
system.cpu.dtb.walker.walkRequestOrigin::total            0                       # Table walker requests started/completed, data/inst
system.cpu.dtb.walker.walks                         0                       # Table walker walks requested
system.cpu.dtb.write_accesses                       0                       # DTB write accesses
system.cpu.dtb.write_hits                           0                       # DTB write hits
system.cpu.dtb.write_misses                         0                       # DTB write misses
system.cpu.fetch.Branches                     1606815                       # Number of branches that fetch encountered
system.cpu.fetch.CacheLines                    685585                       # Number of cache lines fetched
system.cpu.fetch.Cycles                      17874014                       # Number of cycles fetch has run and was not squashing or blocked
system.cpu.fetch.IcacheSquashes                   404                       # Number of outstanding Icache misses that were squashed
system.cpu.fetch.IcacheWaitRetryStallCycles           22                       # Number of stall cycles due to full MSHR
system.cpu.fetch.Insts                       10893761                       # Number of instructions fetch has processed
system.cpu.fetch.MiscStallCycles                    2                       # Number of cycles fetch has spent waiting on interrupts, or bad addresses, or out of MSHRs
system.cpu.fetch.SquashCycles                   12012                       # Number of cycles fetch has spent squashing
system.cpu.fetch.branchRate                  0.086359                       # Number of branch fetches per cycle
system.cpu.fetch.icacheStallCycles             696238                       # Number of cycles fetch is stalled on an Icache miss
system.cpu.fetch.predictedBranches            1599058                       # Number of branches that fetch has predicted taken
system.cpu.fetch.rate                        0.585489                       # Number of inst fetches per cycle
system.cpu.fetch.rateDist::samples           18576282                       # Number of instructions fetched each cycle (Total)
system.cpu.fetch.rateDist::mean              0.586738                       # Number of instructions fetched each cycle (Total)
system.cpu.fetch.rateDist::stdev             1.733684                       # Number of instructions fetched each cycle (Total)
system.cpu.fetch.rateDist::underflows               0      0.00%      0.00% # Number of instructions fetched each cycle (Total)
system.cpu.fetch.rateDist::0                 16518637     88.92%     88.92% # Number of instructions fetched each cycle (Total)
system.cpu.fetch.rateDist::1                     4624      0.02%     88.95% # Number of instructions fetched each cycle (Total)
system.cpu.fetch.rateDist::2                    83034      0.45%     89.40% # Number of instructions fetched each cycle (Total)
system.cpu.fetch.rateDist::3                    33741      0.18%     89.58% # Number of instructions fetched each cycle (Total)
system.cpu.fetch.rateDist::4                   787489      4.24%     93.82% # Number of instructions fetched each cycle (Total)
system.cpu.fetch.rateDist::5                     6290      0.03%     93.85% # Number of instructions fetched each cycle (Total)
system.cpu.fetch.rateDist::6                   559178      3.01%     96.86% # Number of instructions fetched each cycle (Total)
system.cpu.fetch.rateDist::7                   575288      3.10%     99.96% # Number of instructions fetched each cycle (Total)
system.cpu.fetch.rateDist::8                     8001      0.04%    100.00% # Number of instructions fetched each cycle (Total)
system.cpu.fetch.rateDist::overflows                0      0.00%    100.00% # Number of instructions fetched each cycle (Total)
system.cpu.fetch.rateDist::min_value                0                       # Number of instructions fetched each cycle (Total)
system.cpu.fetch.rateDist::max_value                8                       # Number of instructions fetched each cycle (Total)
system.cpu.fetch.rateDist::total             18576282                       # Number of instructions fetched each cycle (Total)
system.cpu.icache.prefetcher.num_hwpf_issued          628                       # number of hwpf issued
system.cpu.icache.prefetcher.pfBufferHit            5                       # number of redundant prefetches already in prefetch queue
system.cpu.icache.prefetcher.pfIdentified          670                       # number of prefetch candidates identified
system.cpu.icache.prefetcher.pfInCache              0                       # number of redundant prefetches already in cache/mshr dropped
system.cpu.icache.prefetcher.pfRemovedFull            0                       # number of prefetches dropped due to prefetch queue size
system.cpu.icache.prefetcher.pfSpanPage           157                       # number of prefetches that crossed the page
system.cpu.idleCycles                           29981                       # Total number of cycles that the CPU has spent unscheduled due to idling
system.cpu.iew.branchMispredicts                  761                       # Number of branch mispredicts detected at execute
system.cpu.iew.exec_branches                  1566868                       # Number of branches executed
system.cpu.iew.exec_nop                           238                       # number of nop insts executed
system.cpu.iew.exec_rate                     0.793048                       # Inst execution rate
system.cpu.iew.exec_refs                      8793435                       # number of memory reference insts executed
system.cpu.iew.exec_stores                    1554101                       # Number of stores executed
system.cpu.iew.exec_swp                             0                       # number of swp insts executed
system.cpu.iew.iewBlockCycles                12062193                       # Number of cycles IEW is blocking
system.cpu.iew.iewDispLoadInsts               3096250                       # Number of dispatched load instructions
system.cpu.iew.iewDispNonSpecInsts                 35                       # Number of dispatched non-speculative instructions
system.cpu.iew.iewDispSquashedInsts               110                       # Number of squashed instructions skipped by dispatch
system.cpu.iew.iewDispStoreInsts              1554771                       # Number of dispatched store instructions
system.cpu.iew.iewDispatchedInsts            10616655                       # Number of instructions dispatched to IQ
system.cpu.iew.iewExecLoadInsts               7239334                       # Number of load instructions executed
system.cpu.iew.iewExecSquashedInsts               980                       # Number of squashed instructions skipped in execute
system.cpu.iew.iewExecutedInsts              14755654                       # Number of executed instructions
system.cpu.iew.iewIQFullEvents                  23328                       # Number of times the IQ has become full, causing a stall
system.cpu.iew.iewIdleCycles                        0                       # Number of cycles IEW is idle
system.cpu.iew.iewLSQFullEvents                145727                       # Number of times the LSQ has become full, causing a stall
system.cpu.iew.iewSquashCycles                   5808                       # Number of cycles IEW is squashing
system.cpu.iew.iewUnblockCycles                204168                       # Number of cycles IEW is unblocking
system.cpu.iew.lsq.thread0.blockedLoads             0                       # Number of blocked loads due to partial load-store forwarding
system.cpu.iew.lsq.thread0.cacheBlocked        218508                       # Number of times an access to memory failed due to the cache being blocked
system.cpu.iew.lsq.thread0.forwLoads              731                       # Number of loads that had data forwarded from stores
system.cpu.iew.lsq.thread0.ignoredResponses            2                       # Number of memory responses ignored because the instruction is squashed
system.cpu.iew.lsq.thread0.invAddrLoads             0                       # Number of loads ignored due to an invalid address
system.cpu.iew.lsq.thread0.invAddrSwpfs             0                       # Number of software prefetches ignored due to an invalid address
system.cpu.iew.lsq.thread0.memOrderViolation           14                       # Number of memory ordering violations
system.cpu.iew.lsq.thread0.rescheduledLoads           23                       # Number of loads that were rescheduled
system.cpu.iew.lsq.thread0.squashedLoads       169751                       # Number of loads squashed
system.cpu.iew.lsq.thread0.squashedStores        87861                       # Number of stores squashed
system.cpu.iew.memOrderViolationEvents             14                       # Number of memory order violations
system.cpu.iew.predictedNotTakenIncorrect          574                       # Number of branches that were predicted not taken incorrectly
system.cpu.iew.predictedTakenIncorrect            187                       # Number of branches that were predicted taken incorrectly
system.cpu.iew.wb_consumers                  12314747                       # num instructions consuming a value
system.cpu.iew.wb_count                      10524675                       # cumulative count of insts written-back
system.cpu.iew.wb_fanout                     0.568932                       # average fanout of values written-back
system.cpu.iew.wb_producers                   7006251                       # num instructions producing a value
system.cpu.iew.wb_rate                       0.565652                       # insts written-back per cycle
system.cpu.iew.wb_sent                       10611678                       # cumulative count of insts sent to commit
system.cpu.int_regfile_reads                 17850236                       # number of integer regfile reads
system.cpu.int_regfile_writes                 7493196                       # number of integer regfile writes
system.cpu.ipc                               0.537454                       # IPC: Instructions Per Cycle
system.cpu.ipc_total                         0.537454                       # IPC: Total IPC of All Threads
system.cpu.iq.FU_type_0::No_OpClass                 5      0.00%      0.00% # Type of FU issued
system.cpu.iq.FU_type_0::IntAlu               5962223     40.40%     40.40% # Type of FU issued
system.cpu.iq.FU_type_0::IntMult                  508      0.00%     40.41% # Type of FU issued
system.cpu.iq.FU_type_0::IntDiv                     2      0.00%     40.41% # Type of FU issued
system.cpu.iq.FU_type_0::FloatAdd                   0      0.00%     40.41% # Type of FU issued
system.cpu.iq.FU_type_0::FloatCmp                   0      0.00%     40.41% # Type of FU issued
system.cpu.iq.FU_type_0::FloatCvt                   0      0.00%     40.41% # Type of FU issued
system.cpu.iq.FU_type_0::FloatMult                  0      0.00%     40.41% # Type of FU issued
system.cpu.iq.FU_type_0::FloatMultAcc               0      0.00%     40.41% # Type of FU issued
system.cpu.iq.FU_type_0::FloatDiv                   0      0.00%     40.41% # Type of FU issued
system.cpu.iq.FU_type_0::FloatMisc                  1      0.00%     40.41% # Type of FU issued
system.cpu.iq.FU_type_0::FloatSqrt                  0      0.00%     40.41% # Type of FU issued
system.cpu.iq.FU_type_0::SimdAdd                   25      0.00%     40.41% # Type of FU issued
system.cpu.iq.FU_type_0::SimdAddAcc                 0      0.00%     40.41% # Type of FU issued
system.cpu.iq.FU_type_0::SimdAlu                   16      0.00%     40.41% # Type of FU issued
system.cpu.iq.FU_type_0::SimdCmp                   20      0.00%     40.41% # Type of FU issued
system.cpu.iq.FU_type_0::SimdCvt                    0      0.00%     40.41% # Type of FU issued
system.cpu.iq.FU_type_0::SimdMisc                  18      0.00%     40.41% # Type of FU issued
system.cpu.iq.FU_type_0::SimdMult                   0      0.00%     40.41% # Type of FU issued
system.cpu.iq.FU_type_0::SimdMultAcc                0      0.00%     40.41% # Type of FU issued
system.cpu.iq.FU_type_0::SimdShift                  0      0.00%     40.41% # Type of FU issued
system.cpu.iq.FU_type_0::SimdShiftAcc               0      0.00%     40.41% # Type of FU issued
system.cpu.iq.FU_type_0::SimdDiv                    0      0.00%     40.41% # Type of FU issued
system.cpu.iq.FU_type_0::SimdSqrt                   0      0.00%     40.41% # Type of FU issued
system.cpu.iq.FU_type_0::SimdFloatAdd               0      0.00%     40.41% # Type of FU issued
system.cpu.iq.FU_type_0::SimdFloatAlu               0      0.00%     40.41% # Type of FU issued
system.cpu.iq.FU_type_0::SimdFloatCmp               0      0.00%     40.41% # Type of FU issued
system.cpu.iq.FU_type_0::SimdFloatCvt               0      0.00%     40.41% # Type of FU issued
system.cpu.iq.FU_type_0::SimdFloatDiv               0      0.00%     40.41% # Type of FU issued
system.cpu.iq.FU_type_0::SimdFloatMisc              0      0.00%     40.41% # Type of FU issued
system.cpu.iq.FU_type_0::SimdFloatMult              0      0.00%     40.41% # Type of FU issued
system.cpu.iq.FU_type_0::SimdFloatMultAcc            0      0.00%     40.41% # Type of FU issued
system.cpu.iq.FU_type_0::SimdFloatSqrt              0      0.00%     40.41% # Type of FU issued
system.cpu.iq.FU_type_0::SimdReduceAdd              0      0.00%     40.41% # Type of FU issued
system.cpu.iq.FU_type_0::SimdReduceAlu              0      0.00%     40.41% # Type of FU issued
system.cpu.iq.FU_type_0::SimdReduceCmp              0      0.00%     40.41% # Type of FU issued
system.cpu.iq.FU_type_0::SimdFloatReduceAdd            0      0.00%     40.41% # Type of FU issued
system.cpu.iq.FU_type_0::SimdFloatReduceCmp            0      0.00%     40.41% # Type of FU issued
system.cpu.iq.FU_type_0::SimdAes                    0      0.00%     40.41% # Type of FU issued
system.cpu.iq.FU_type_0::SimdAesMix                 0      0.00%     40.41% # Type of FU issued
system.cpu.iq.FU_type_0::SimdSha1Hash               0      0.00%     40.41% # Type of FU issued
system.cpu.iq.FU_type_0::SimdSha1Hash2              0      0.00%     40.41% # Type of FU issued
system.cpu.iq.FU_type_0::SimdSha256Hash             0      0.00%     40.41% # Type of FU issued
system.cpu.iq.FU_type_0::SimdSha256Hash2            0      0.00%     40.41% # Type of FU issued
system.cpu.iq.FU_type_0::SimdShaSigma2              0      0.00%     40.41% # Type of FU issued
system.cpu.iq.FU_type_0::SimdShaSigma3              0      0.00%     40.41% # Type of FU issued
system.cpu.iq.FU_type_0::SimdPredAlu                0      0.00%     40.41% # Type of FU issued
system.cpu.iq.FU_type_0::MemRead              7239501     49.06%     89.47% # Type of FU issued
system.cpu.iq.FU_type_0::MemWrite             1554320     10.53%    100.00% # Type of FU issued
system.cpu.iq.FU_type_0::FloatMemRead               0      0.00%    100.00% # Type of FU issued
system.cpu.iq.FU_type_0::FloatMemWrite              0      0.00%    100.00% # Type of FU issued
system.cpu.iq.FU_type_0::IprAccess                  0      0.00%    100.00% # Type of FU issued
system.cpu.iq.FU_type_0::InstPrefetch               0      0.00%    100.00% # Type of FU issued
system.cpu.iq.FU_type_0::total               14756639                       # Type of FU issued
system.cpu.iq.fp_alu_accesses                       0                       # Number of floating point alu accesses
system.cpu.iq.fp_inst_queue_reads                   0                       # Number of floating instruction queue reads
system.cpu.iq.fp_inst_queue_wakeup_accesses            0                       # Number of floating instruction queue wakeup accesses
system.cpu.iq.fp_inst_queue_writes                  0                       # Number of floating instruction queue writes
system.cpu.iq.fu_busy_cnt                      986139                       # FU busy when requested
system.cpu.iq.fu_busy_rate                   0.066827                       # FU busy rate (busy events/executed inst)
system.cpu.iq.fu_full::No_OpClass                   0      0.00%      0.00% # attempts to use FU when none available
system.cpu.iq.fu_full::IntAlu                     241      0.02%      0.02% # attempts to use FU when none available
system.cpu.iq.fu_full::IntMult                      0      0.00%      0.02% # attempts to use FU when none available
system.cpu.iq.fu_full::IntDiv                       0      0.00%      0.02% # attempts to use FU when none available
system.cpu.iq.fu_full::FloatAdd                     0      0.00%      0.02% # attempts to use FU when none available
system.cpu.iq.fu_full::FloatCmp                     0      0.00%      0.02% # attempts to use FU when none available
system.cpu.iq.fu_full::FloatCvt                     0      0.00%      0.02% # attempts to use FU when none available
system.cpu.iq.fu_full::FloatMult                    0      0.00%      0.02% # attempts to use FU when none available
system.cpu.iq.fu_full::FloatMultAcc                 0      0.00%      0.02% # attempts to use FU when none available
system.cpu.iq.fu_full::FloatDiv                     0      0.00%      0.02% # attempts to use FU when none available
system.cpu.iq.fu_full::FloatMisc                    0      0.00%      0.02% # attempts to use FU when none available
system.cpu.iq.fu_full::FloatSqrt                    0      0.00%      0.02% # attempts to use FU when none available
system.cpu.iq.fu_full::SimdAdd                      0      0.00%      0.02% # attempts to use FU when none available
system.cpu.iq.fu_full::SimdAddAcc                   0      0.00%      0.02% # attempts to use FU when none available
system.cpu.iq.fu_full::SimdAlu                      1      0.00%      0.02% # attempts to use FU when none available
system.cpu.iq.fu_full::SimdCmp                      2      0.00%      0.02% # attempts to use FU when none available
system.cpu.iq.fu_full::SimdCvt                      0      0.00%      0.02% # attempts to use FU when none available
system.cpu.iq.fu_full::SimdMisc                     0      0.00%      0.02% # attempts to use FU when none available
system.cpu.iq.fu_full::SimdMult                     0      0.00%      0.02% # attempts to use FU when none available
system.cpu.iq.fu_full::SimdMultAcc                  0      0.00%      0.02% # attempts to use FU when none available
system.cpu.iq.fu_full::SimdShift                    0      0.00%      0.02% # attempts to use FU when none available
system.cpu.iq.fu_full::SimdShiftAcc                 0      0.00%      0.02% # attempts to use FU when none available
system.cpu.iq.fu_full::SimdDiv                      0      0.00%      0.02% # attempts to use FU when none available
system.cpu.iq.fu_full::SimdSqrt                     0      0.00%      0.02% # attempts to use FU when none available
system.cpu.iq.fu_full::SimdFloatAdd                 0      0.00%      0.02% # attempts to use FU when none available
system.cpu.iq.fu_full::SimdFloatAlu                 0      0.00%      0.02% # attempts to use FU when none available
system.cpu.iq.fu_full::SimdFloatCmp                 0      0.00%      0.02% # attempts to use FU when none available
system.cpu.iq.fu_full::SimdFloatCvt                 0      0.00%      0.02% # attempts to use FU when none available
system.cpu.iq.fu_full::SimdFloatDiv                 0      0.00%      0.02% # attempts to use FU when none available
system.cpu.iq.fu_full::SimdFloatMisc                0      0.00%      0.02% # attempts to use FU when none available
system.cpu.iq.fu_full::SimdFloatMult                0      0.00%      0.02% # attempts to use FU when none available
system.cpu.iq.fu_full::SimdFloatMultAcc             0      0.00%      0.02% # attempts to use FU when none available
system.cpu.iq.fu_full::SimdFloatSqrt                0      0.00%      0.02% # attempts to use FU when none available
system.cpu.iq.fu_full::SimdReduceAdd                0      0.00%      0.02% # attempts to use FU when none available
system.cpu.iq.fu_full::SimdReduceAlu                0      0.00%      0.02% # attempts to use FU when none available
system.cpu.iq.fu_full::SimdReduceCmp                0      0.00%      0.02% # attempts to use FU when none available
system.cpu.iq.fu_full::SimdFloatReduceAdd            0      0.00%      0.02% # attempts to use FU when none available
system.cpu.iq.fu_full::SimdFloatReduceCmp            0      0.00%      0.02% # attempts to use FU when none available
system.cpu.iq.fu_full::SimdAes                      0      0.00%      0.02% # attempts to use FU when none available
system.cpu.iq.fu_full::SimdAesMix                   0      0.00%      0.02% # attempts to use FU when none available
system.cpu.iq.fu_full::SimdSha1Hash                 0      0.00%      0.02% # attempts to use FU when none available
system.cpu.iq.fu_full::SimdSha1Hash2                0      0.00%      0.02% # attempts to use FU when none available
system.cpu.iq.fu_full::SimdSha256Hash               0      0.00%      0.02% # attempts to use FU when none available
system.cpu.iq.fu_full::SimdSha256Hash2              0      0.00%      0.02% # attempts to use FU when none available
system.cpu.iq.fu_full::SimdShaSigma2                0      0.00%      0.02% # attempts to use FU when none available
system.cpu.iq.fu_full::SimdShaSigma3                0      0.00%      0.02% # attempts to use FU when none available
system.cpu.iq.fu_full::SimdPredAlu                  0      0.00%      0.02% # attempts to use FU when none available
system.cpu.iq.fu_full::MemRead                 984903     99.87%     99.90% # attempts to use FU when none available
system.cpu.iq.fu_full::MemWrite                   992      0.10%    100.00% # attempts to use FU when none available
system.cpu.iq.fu_full::FloatMemRead                 0      0.00%    100.00% # attempts to use FU when none available
system.cpu.iq.fu_full::FloatMemWrite                0      0.00%    100.00% # attempts to use FU when none available
system.cpu.iq.fu_full::IprAccess                    0      0.00%    100.00% # attempts to use FU when none available
system.cpu.iq.fu_full::InstPrefetch                 0      0.00%    100.00% # attempts to use FU when none available
system.cpu.iq.int_alu_accesses               15742337                       # Number of integer alu accesses
system.cpu.iq.int_inst_queue_reads           49074921                       # Number of integer instruction queue reads
system.cpu.iq.int_inst_queue_wakeup_accesses     10524345                       # Number of integer instruction queue wakeup accesses
system.cpu.iq.int_inst_queue_writes          11228191                       # Number of integer instruction queue writes
system.cpu.iq.iqInstsAdded                   10616382                       # Number of instructions added to the IQ (excludes non-spec)
system.cpu.iq.iqInstsIssued                  14756639                       # Number of instructions issued
system.cpu.iq.iqNonSpecInstsAdded                  35                       # Number of non-speculative instructions added to the IQ
system.cpu.iq.iqSquashedInstsExamined          612631                       # Number of squashed instructions iterated over during squash; mainly for profiling
system.cpu.iq.iqSquashedInstsIssued               149                       # Number of squashed instructions issued
system.cpu.iq.iqSquashedNonSpecRemoved              9                       # Number of squashed non-spec instructions that were removed
system.cpu.iq.iqSquashedOperandsExamined       201041                       # Number of squashed operands that are examined and possibly removed from graph
system.cpu.iq.issued_per_cycle::samples      18576282                       # Number of insts issued each cycle
system.cpu.iq.issued_per_cycle::mean         0.794381                       # Number of insts issued each cycle
system.cpu.iq.issued_per_cycle::stdev        1.872251                       # Number of insts issued each cycle
system.cpu.iq.issued_per_cycle::underflows            0      0.00%      0.00% # Number of insts issued each cycle
system.cpu.iq.issued_per_cycle::0            15145459     81.53%     81.53% # Number of insts issued each cycle
system.cpu.iq.issued_per_cycle::1              375585      2.02%     83.55% # Number of insts issued each cycle
system.cpu.iq.issued_per_cycle::2              240724      1.30%     84.85% # Number of insts issued each cycle
system.cpu.iq.issued_per_cycle::3              390186      2.10%     86.95% # Number of insts issued each cycle
system.cpu.iq.issued_per_cycle::4             1156429      6.23%     93.17% # Number of insts issued each cycle
system.cpu.iq.issued_per_cycle::5              413527      2.23%     95.40% # Number of insts issued each cycle
system.cpu.iq.issued_per_cycle::6              228223      1.23%     96.63% # Number of insts issued each cycle
system.cpu.iq.issued_per_cycle::7              342833      1.85%     98.47% # Number of insts issued each cycle
system.cpu.iq.issued_per_cycle::8              283316      1.53%    100.00% # Number of insts issued each cycle
system.cpu.iq.issued_per_cycle::overflows            0      0.00%    100.00% # Number of insts issued each cycle
system.cpu.iq.issued_per_cycle::min_value            0                       # Number of insts issued each cycle
system.cpu.iq.issued_per_cycle::max_value            8                       # Number of insts issued each cycle
system.cpu.iq.issued_per_cycle::total        18576282                       # Number of insts issued each cycle
system.cpu.iq.rate                           0.793101                       # Inst issue rate
system.cpu.iq.vec_alu_accesses                    436                       # Number of vector alu accesses
system.cpu.iq.vec_inst_queue_reads                922                       # Number of vector instruction queue reads
system.cpu.iq.vec_inst_queue_wakeup_accesses          330                       # Number of vector instruction queue wakeup accesses
system.cpu.iq.vec_inst_queue_writes               870                       # Number of vector instruction queue writes
system.cpu.itb.accesses                             0                       # DTB accesses
system.cpu.itb.align_faults                         0                       # Number of TLB faults due to alignment restrictions
system.cpu.itb.domain_faults                        0                       # Number of TLB faults due to domain restrictions
system.cpu.itb.flush_entries                        0                       # Number of entries that have been flushed from TLB
system.cpu.itb.flush_tlb                            0                       # Number of times complete TLB was flushed
system.cpu.itb.flush_tlb_asid                       0                       # Number of times TLB was flushed by ASID
system.cpu.itb.flush_tlb_mva                        0                       # Number of times TLB was flushed by MVA
system.cpu.itb.flush_tlb_mva_asid                   0                       # Number of times TLB was flushed by MVA & ASID
system.cpu.itb.hits                                 0                       # DTB hits
system.cpu.itb.inst_accesses                        0                       # ITB inst accesses
system.cpu.itb.inst_hits                            0                       # ITB inst hits
system.cpu.itb.inst_misses                          0                       # ITB inst misses
system.cpu.itb.misses                               0                       # DTB misses
system.cpu.itb.perms_faults                         0                       # Number of TLB faults due to permissions restrictions
system.cpu.itb.prefetch_faults                      0                       # Number of TLB faults due to prefetch
system.cpu.itb.read_accesses                        0                       # DTB read accesses
system.cpu.itb.read_hits                            0                       # DTB read hits
system.cpu.itb.read_misses                          0                       # DTB read misses
system.cpu.itb.stage2_mmu.stage2_tlb.accesses            0                       # DTB accesses
system.cpu.itb.stage2_mmu.stage2_tlb.align_faults            0                       # Number of TLB faults due to alignment restrictions
system.cpu.itb.stage2_mmu.stage2_tlb.domain_faults            0                       # Number of TLB faults due to domain restrictions
system.cpu.itb.stage2_mmu.stage2_tlb.flush_entries            0                       # Number of entries that have been flushed from TLB
system.cpu.itb.stage2_mmu.stage2_tlb.flush_tlb            0                       # Number of times complete TLB was flushed
system.cpu.itb.stage2_mmu.stage2_tlb.flush_tlb_asid            0                       # Number of times TLB was flushed by ASID
system.cpu.itb.stage2_mmu.stage2_tlb.flush_tlb_mva            0                       # Number of times TLB was flushed by MVA
system.cpu.itb.stage2_mmu.stage2_tlb.flush_tlb_mva_asid            0                       # Number of times TLB was flushed by MVA & ASID
system.cpu.itb.stage2_mmu.stage2_tlb.hits            0                       # DTB hits
system.cpu.itb.stage2_mmu.stage2_tlb.inst_accesses            0                       # ITB inst accesses
system.cpu.itb.stage2_mmu.stage2_tlb.inst_hits            0                       # ITB inst hits
system.cpu.itb.stage2_mmu.stage2_tlb.inst_misses            0                       # ITB inst misses
system.cpu.itb.stage2_mmu.stage2_tlb.misses            0                       # DTB misses
system.cpu.itb.stage2_mmu.stage2_tlb.perms_faults            0                       # Number of TLB faults due to permissions restrictions
system.cpu.itb.stage2_mmu.stage2_tlb.prefetch_faults            0                       # Number of TLB faults due to prefetch
system.cpu.itb.stage2_mmu.stage2_tlb.read_accesses            0                       # DTB read accesses
system.cpu.itb.stage2_mmu.stage2_tlb.read_hits            0                       # DTB read hits
system.cpu.itb.stage2_mmu.stage2_tlb.read_misses            0                       # DTB read misses
system.cpu.itb.stage2_mmu.stage2_tlb.walker.walkRequestOrigin_Requested::Data            0                       # Table walker requests started/completed, data/inst
system.cpu.itb.stage2_mmu.stage2_tlb.walker.walkRequestOrigin_Requested::Inst            0                       # Table walker requests started/completed, data/inst
system.cpu.itb.stage2_mmu.stage2_tlb.walker.walkRequestOrigin_Requested::total            0                       # Table walker requests started/completed, data/inst
system.cpu.itb.stage2_mmu.stage2_tlb.walker.walkRequestOrigin_Completed::Data            0                       # Table walker requests started/completed, data/inst
system.cpu.itb.stage2_mmu.stage2_tlb.walker.walkRequestOrigin_Completed::Inst            0                       # Table walker requests started/completed, data/inst
system.cpu.itb.stage2_mmu.stage2_tlb.walker.walkRequestOrigin_Completed::total            0                       # Table walker requests started/completed, data/inst
system.cpu.itb.stage2_mmu.stage2_tlb.walker.walkRequestOrigin::total            0                       # Table walker requests started/completed, data/inst
system.cpu.itb.stage2_mmu.stage2_tlb.walker.walks            0                       # Table walker walks requested
system.cpu.itb.stage2_mmu.stage2_tlb.write_accesses            0                       # DTB write accesses
system.cpu.itb.stage2_mmu.stage2_tlb.write_hits            0                       # DTB write hits
system.cpu.itb.stage2_mmu.stage2_tlb.write_misses            0                       # DTB write misses
system.cpu.itb.walker.walkRequestOrigin_Requested::Data            0                       # Table walker requests started/completed, data/inst
system.cpu.itb.walker.walkRequestOrigin_Requested::Inst            0                       # Table walker requests started/completed, data/inst
system.cpu.itb.walker.walkRequestOrigin_Requested::total            0                       # Table walker requests started/completed, data/inst
system.cpu.itb.walker.walkRequestOrigin_Completed::Data            0                       # Table walker requests started/completed, data/inst
system.cpu.itb.walker.walkRequestOrigin_Completed::Inst            0                       # Table walker requests started/completed, data/inst
system.cpu.itb.walker.walkRequestOrigin_Completed::total            0                       # Table walker requests started/completed, data/inst
system.cpu.itb.walker.walkRequestOrigin::total            0                       # Table walker requests started/completed, data/inst
system.cpu.itb.walker.walks                         0                       # Table walker walks requested
system.cpu.itb.write_accesses                       0                       # DTB write accesses
system.cpu.itb.write_hits                           0                       # DTB write hits
system.cpu.itb.write_misses                         0                       # DTB write misses
system.cpu.memDep0.conflictingLoads              2623                       # Number of conflicting loads.
system.cpu.memDep0.conflictingStores             2523                       # Number of conflicting stores.
system.cpu.memDep0.insertedLoads              3096250                       # Number of loads inserted to the mem dependence unit.
system.cpu.memDep0.insertedStores             1554771                       # Number of stores inserted to the mem dependence unit.
system.cpu.misc_regfile_reads                 8479659                       # number of misc regfile reads
system.cpu.misc_regfile_writes                     65                       # number of misc regfile writes
system.cpu.numCycles                         18606263                       # number of cpu cycles simulated
system.cpu.numWorkItemsCompleted                    0                       # number of work items this cpu completed
system.cpu.numWorkItemsStarted                      0                       # number of work items this cpu started
system.cpu.rename.BlockCycles                12339775                       # Number of cycles rename is blocking
system.cpu.rename.CommittedMaps              11474659                       # Number of HB maps that are committed
system.cpu.rename.IQFullEvents                 278448                       # Number of times rename has blocked due to IQ full
system.cpu.rename.IdleCycles                   635093                       # Number of cycles rename is idle
system.cpu.rename.LQFullEvents                 411725                       # Number of times rename has blocked due to LQ full
system.cpu.rename.ROBFullEvents                   223                       # Number of times rename has blocked due to ROB full
system.cpu.rename.RenameLookups              18411621                       # Number of register rename lookups that rename has made
system.cpu.rename.RenamedInsts               10622600                       # Number of instructions processed by rename
system.cpu.rename.RenamedOperands            12180670                       # Number of destination operands rename has renamed
system.cpu.rename.RunCycles                   1404911                       # Number of cycles rename is running
system.cpu.rename.SQFullEvents                3451611                       # Number of times rename has blocked due to SQ full
system.cpu.rename.SquashCycles                   5808                       # Number of cycles rename is squashing
system.cpu.rename.UnblockCycles               4186064                       # Number of cycles rename is unblocking
system.cpu.rename.UndoneMaps                   705966                       # Number of HB maps that are undone due to squashing
system.cpu.rename.int_rename_lookups         13718708                       # Number of integer rename lookups
system.cpu.rename.serializeStallCycles           4631                       # count of cycles rename stalled for serializing inst
system.cpu.rename.serializingInsts                104                       # count of serializing insts renamed
system.cpu.rename.skidInsts                   1600963                       # count of insts added to the skid buffer
system.cpu.rename.tempSerializingInsts             36                       # count of temporary serializing insts renamed
system.cpu.rename.vec_rename_lookups              632                       # Number of vector rename lookups
system.cpu.rob.rob_reads                     28277815                       # The number of ROB reads
system.cpu.rob.rob_writes                    21318560                       # The number of ROB writes
system.cpu.timesIdled                             326                       # Number of times that the entire CPU went into an idle state and unscheduled itself
system.cpu.vec_regfile_reads                      372                       # number of vector regfile reads
system.cpu.vec_regfile_writes                      92                       # number of vector regfile writes
system.cpu.workload.numSyscalls                     9                       # Number of system calls
system.membus.snoop_filter.hit_multi_requests            0                       # Number of requests hitting in the snoop filter with multiple (>1) holders of the requested data.
system.membus.snoop_filter.hit_multi_snoops            0                       # Number of snoops hitting in the snoop filter with multiple (>1) holders of the requested data.
system.membus.snoop_filter.hit_single_requests       296799                       # Number of requests hitting in the snoop filter with a single holder of the requested data.
system.membus.snoop_filter.hit_single_snoops            0                       # Number of snoops hitting in the snoop filter with a single holder of the requested data.
system.membus.snoop_filter.tot_requests        626495                       # Total number of requests made to the snoop filter.
system.membus.snoop_filter.tot_snoops               0                       # Total number of snoops made to the snoop filter.
system.tol2bus.snoop_filter.hit_multi_requests            1                       # Number of requests hitting in the snoop filter with multiple (>1) holders of the requested data.
system.tol2bus.snoop_filter.hit_multi_snoops            0                       # Number of snoops hitting in the snoop filter with multiple (>1) holders of the requested data.
system.tol2bus.snoop_filter.hit_single_requests       328687                       # Number of requests hitting in the snoop filter with a single holder of the requested data.
system.tol2bus.snoop_filter.hit_single_snoops          132                       # Number of snoops hitting in the snoop filter with a single holder of the requested data.
system.tol2bus.snoop_filter.tot_requests       658527                       # Total number of requests made to the snoop filter.
system.tol2bus.snoop_filter.tot_snoops            132                       # Total number of snoops made to the snoop filter.
system.membus.trans_dist::ReadResp                474                       # Transaction distribution
system.membus.trans_dist::WritebackDirty       296472                       # Transaction distribution
system.membus.trans_dist::CleanEvict              327                       # Transaction distribution
system.membus.trans_dist::ReadExReq            326397                       # Transaction distribution
system.membus.trans_dist::ReadExResp           326397                       # Transaction distribution
system.membus.trans_dist::ReadSharedReq           474                       # Transaction distribution
system.membus.trans_dist::InvalidateReq          2825                       # Transaction distribution
system.membus.pkt_count_system.l2.mem_side::system.mem_ctrls.port       953366                       # Packet count per connected master and slave (bytes)
system.membus.pkt_count::total                 953366                       # Packet count per connected master and slave (bytes)
system.membus.pkt_size_system.l2.mem_side::system.mem_ctrls.port     39893952                       # Cumulative packet size per connected master and slave (bytes)
system.membus.pkt_size::total                39893952                       # Cumulative packet size per connected master and slave (bytes)
system.membus.snoops                                0                       # Total snoops (count)
system.membus.snoopTraffic                          0                       # Total snoop traffic (bytes)
system.membus.snoop_fanout::samples            329696                       # Request fanout histogram
system.membus.snoop_fanout::mean                    0                       # Request fanout histogram
system.membus.snoop_fanout::stdev                   0                       # Request fanout histogram
system.membus.snoop_fanout::underflows              0      0.00%      0.00% # Request fanout histogram
system.membus.snoop_fanout::0                  329696    100.00%    100.00% # Request fanout histogram
system.membus.snoop_fanout::1                       0      0.00%    100.00% # Request fanout histogram
system.membus.snoop_fanout::overflows               0      0.00%    100.00% # Request fanout histogram
system.membus.snoop_fanout::min_value               0                       # Request fanout histogram
system.membus.snoop_fanout::max_value               0                       # Request fanout histogram
system.membus.snoop_fanout::total              329696                       # Request fanout histogram
system.membus.reqLayer0.occupancy          1901886000                       # Layer occupancy (ticks)
system.membus.reqLayer0.utilization              20.4                       # Layer utilization (%)
system.membus.respLayer1.occupancy         1699972750                       # Layer occupancy (ticks)
system.membus.respLayer1.utilization             18.3                       # Layer utilization (%)
system.membus.power_state.pwrStateResidencyTicks::UNDEFINED   9303131000                       # Cumulative time (in ticks) in various power states
system.tol2bus.trans_dist::ReadResp               602                       # Transaction distribution
system.tol2bus.trans_dist::WritebackDirty       624728                       # Transaction distribution
system.tol2bus.trans_dist::WritebackClean          352                       # Transaction distribution
system.tol2bus.trans_dist::CleanEvict             537                       # Transaction distribution
system.tol2bus.trans_dist::ReadExReq           326412                       # Transaction distribution
system.tol2bus.trans_dist::ReadExResp          326411                       # Transaction distribution
system.tol2bus.trans_dist::ReadCleanReq           480                       # Transaction distribution
system.tol2bus.trans_dist::ReadSharedReq          122                       # Transaction distribution
system.tol2bus.trans_dist::InvalidateReq         2826                       # Transaction distribution
system.tol2bus.trans_dist::InvalidateResp         2826                       # Transaction distribution
system.tol2bus.pkt_count_system.cpu.icache.mem_side::system.l2.cpu_side         1312                       # Packet count per connected master and slave (bytes)
system.tol2bus.pkt_count_system.cpu.dcache.mem_side::system.l2.cpu_side       987054                       # Packet count per connected master and slave (bytes)
system.tol2bus.pkt_count::total                988366                       # Packet count per connected master and slave (bytes)
system.tol2bus.pkt_size_system.cpu.icache.mem_side::system.l2.cpu_side        53248                       # Cumulative packet size per connected master and slave (bytes)
system.tol2bus.pkt_size_system.cpu.dcache.mem_side::system.l2.cpu_side     41906496                       # Cumulative packet size per connected master and slave (bytes)
system.tol2bus.pkt_size::total               41959744                       # Cumulative packet size per connected master and slave (bytes)
system.tol2bus.snoops                          296930                       # Total snoops (count)
system.tol2bus.snoopTraffic                  18974208                       # Total snoop traffic (bytes)
system.tol2bus.snoop_fanout::samples           626770                       # Request fanout histogram
system.tol2bus.snoop_fanout::mean            0.000212                       # Request fanout histogram
system.tol2bus.snoop_fanout::stdev           0.014566                       # Request fanout histogram
system.tol2bus.snoop_fanout::underflows             0      0.00%      0.00% # Request fanout histogram
system.tol2bus.snoop_fanout::0                 626637     99.98%     99.98% # Request fanout histogram
system.tol2bus.snoop_fanout::1                    133      0.02%    100.00% # Request fanout histogram
system.tol2bus.snoop_fanout::2                      0      0.00%    100.00% # Request fanout histogram
system.tol2bus.snoop_fanout::overflows              0      0.00%    100.00% # Request fanout histogram
system.tol2bus.snoop_fanout::min_value              0                       # Request fanout histogram
system.tol2bus.snoop_fanout::max_value              1                       # Request fanout histogram
system.tol2bus.snoop_fanout::total             626770                       # Request fanout histogram
system.tol2bus.reqLayer0.occupancy          657890932                       # Layer occupancy (ticks)
system.tol2bus.reqLayer0.utilization              7.1                       # Layer utilization (%)
system.tol2bus.respLayer1.occupancy         491213997                       # Layer occupancy (ticks)
system.tol2bus.respLayer1.utilization             5.3                       # Layer utilization (%)
system.tol2bus.respLayer0.occupancy            720499                       # Layer occupancy (ticks)
system.tol2bus.respLayer0.utilization             0.0                       # Layer utilization (%)
system.tol2bus.power_state.pwrStateResidencyTicks::UNDEFINED   9303131000                       # Cumulative time (in ticks) in various power states
system.voltage_domain.voltage                       1                       # Voltage in Volts
system.clk_domain.clock                          1000                       # Clock period in ticks
system.l2.demand_hits::.cpu.inst                   52                       # number of demand (read+write) hits
system.l2.demand_hits::.cpu.data                   45                       # number of demand (read+write) hits
system.l2.demand_hits::.cpu.icache.prefetcher           45                       # number of demand (read+write) hits
system.l2.demand_hits::total                      142                       # number of demand (read+write) hits
system.l2.overall_hits::.cpu.inst                  52                       # number of overall hits
system.l2.overall_hits::.cpu.data                  45                       # number of overall hits
system.l2.overall_hits::.cpu.icache.prefetcher           45                       # number of overall hits
system.l2.overall_hits::total                     142                       # number of overall hits
system.l2.demand_misses::.cpu.inst                383                       # number of demand (read+write) misses
system.l2.demand_misses::.cpu.data             326489                       # number of demand (read+write) misses
system.l2.demand_misses::total                 326872                       # number of demand (read+write) misses
system.l2.overall_misses::.cpu.inst               383                       # number of overall misses
system.l2.overall_misses::.cpu.data            326489                       # number of overall misses
system.l2.overall_misses::total                326872                       # number of overall misses
system.l2.demand_miss_latency::.cpu.inst     31197000                       # number of demand (read+write) miss cycles
system.l2.demand_miss_latency::.cpu.data  34397696500                       # number of demand (read+write) miss cycles
system.l2.demand_miss_latency::total      34428893500                       # number of demand (read+write) miss cycles
system.l2.overall_miss_latency::.cpu.inst     31197000                       # number of overall miss cycles
system.l2.overall_miss_latency::.cpu.data  34397696500                       # number of overall miss cycles
system.l2.overall_miss_latency::total     34428893500                       # number of overall miss cycles
system.l2.demand_accesses::.cpu.inst              435                       # number of demand (read+write) accesses
system.l2.demand_accesses::.cpu.data           326534                       # number of demand (read+write) accesses
system.l2.demand_accesses::.cpu.icache.prefetcher           45                       # number of demand (read+write) accesses
system.l2.demand_accesses::total               327014                       # number of demand (read+write) accesses
system.l2.overall_accesses::.cpu.inst             435                       # number of overall (read+write) accesses
system.l2.overall_accesses::.cpu.data          326534                       # number of overall (read+write) accesses
system.l2.overall_accesses::.cpu.icache.prefetcher           45                       # number of overall (read+write) accesses
system.l2.overall_accesses::total              327014                       # number of overall (read+write) accesses
system.l2.demand_miss_rate::.cpu.inst        0.880460                       # miss rate for demand accesses
system.l2.demand_miss_rate::.cpu.data        0.999862                       # miss rate for demand accesses
system.l2.demand_miss_rate::total            0.999566                       # miss rate for demand accesses
system.l2.overall_miss_rate::.cpu.inst       0.880460                       # miss rate for overall accesses
system.l2.overall_miss_rate::.cpu.data       0.999862                       # miss rate for overall accesses
system.l2.overall_miss_rate::total           0.999566                       # miss rate for overall accesses
system.l2.demand_avg_miss_latency::.cpu.inst 81454.308094                       # average overall miss latency
system.l2.demand_avg_miss_latency::.cpu.data 105356.371884                       # average overall miss latency
system.l2.demand_avg_miss_latency::total 105328.365538                       # average overall miss latency
system.l2.overall_avg_miss_latency::.cpu.inst 81454.308094                       # average overall miss latency
system.l2.overall_avg_miss_latency::.cpu.data 105356.371884                       # average overall miss latency
system.l2.overall_avg_miss_latency::total 105328.365538                       # average overall miss latency
system.l2.blocked_cycles::no_mshrs                  0                       # number of cycles access was blocked
system.l2.blocked_cycles::no_targets                0                       # number of cycles access was blocked
system.l2.blocked::no_mshrs                         0                       # number of cycles access was blocked
system.l2.blocked::no_targets                       0                       # number of cycles access was blocked
system.l2.avg_blocked_cycles::no_mshrs            nan                       # average number of cycles each access was blocked
system.l2.avg_blocked_cycles::no_targets          nan                       # average number of cycles each access was blocked
system.l2.writebacks::.writebacks              296472                       # number of writebacks
system.l2.writebacks::total                    296472                       # number of writebacks
system.l2.demand_mshr_misses::.cpu.inst           383                       # number of demand (read+write) MSHR misses
system.l2.demand_mshr_misses::.cpu.data        326489                       # number of demand (read+write) MSHR misses
system.l2.demand_mshr_misses::total            326872                       # number of demand (read+write) MSHR misses
system.l2.overall_mshr_misses::.cpu.inst          383                       # number of overall MSHR misses
system.l2.overall_mshr_misses::.cpu.data       326489                       # number of overall MSHR misses
system.l2.overall_mshr_misses::total           326872                       # number of overall MSHR misses
system.l2.demand_mshr_miss_latency::.cpu.inst     27367000                       # number of demand (read+write) MSHR miss cycles
system.l2.demand_mshr_miss_latency::.cpu.data  31132816500                       # number of demand (read+write) MSHR miss cycles
system.l2.demand_mshr_miss_latency::total  31160183500                       # number of demand (read+write) MSHR miss cycles
system.l2.overall_mshr_miss_latency::.cpu.inst     27367000                       # number of overall MSHR miss cycles
system.l2.overall_mshr_miss_latency::.cpu.data  31132816500                       # number of overall MSHR miss cycles
system.l2.overall_mshr_miss_latency::total  31160183500                       # number of overall MSHR miss cycles
system.l2.demand_mshr_miss_rate::.cpu.inst     0.880460                       # mshr miss rate for demand accesses
system.l2.demand_mshr_miss_rate::.cpu.data     0.999862                       # mshr miss rate for demand accesses
system.l2.demand_mshr_miss_rate::total       0.999566                       # mshr miss rate for demand accesses
system.l2.overall_mshr_miss_rate::.cpu.inst     0.880460                       # mshr miss rate for overall accesses
system.l2.overall_mshr_miss_rate::.cpu.data     0.999862                       # mshr miss rate for overall accesses
system.l2.overall_mshr_miss_rate::total      0.999566                       # mshr miss rate for overall accesses
system.l2.demand_avg_mshr_miss_latency::.cpu.inst 71454.308094                       # average overall mshr miss latency
system.l2.demand_avg_mshr_miss_latency::.cpu.data 95356.402513                       # average overall mshr miss latency
system.l2.demand_avg_mshr_miss_latency::total 95328.396131                       # average overall mshr miss latency
system.l2.overall_avg_mshr_miss_latency::.cpu.inst 71454.308094                       # average overall mshr miss latency
system.l2.overall_avg_mshr_miss_latency::.cpu.data 95356.402513                       # average overall mshr miss latency
system.l2.overall_avg_mshr_miss_latency::total 95328.396131                       # average overall mshr miss latency
system.l2.replacements                         296930                       # number of replacements
system.l2.WritebackDirty_hits::.writebacks       328256                       # number of WritebackDirty hits
system.l2.WritebackDirty_hits::total           328256                       # number of WritebackDirty hits
system.l2.WritebackDirty_accesses::.writebacks       328256                       # number of WritebackDirty accesses(hits+misses)
system.l2.WritebackDirty_accesses::total       328256                       # number of WritebackDirty accesses(hits+misses)
system.l2.WritebackClean_hits::.writebacks          352                       # number of WritebackClean hits
system.l2.WritebackClean_hits::total              352                       # number of WritebackClean hits
system.l2.WritebackClean_accesses::.writebacks          352                       # number of WritebackClean accesses(hits+misses)
system.l2.WritebackClean_accesses::total          352                       # number of WritebackClean accesses(hits+misses)
system.l2.CleanEvict_mshr_misses::.writebacks            1                       # number of CleanEvict MSHR misses
system.l2.CleanEvict_mshr_misses::total             1                       # number of CleanEvict MSHR misses
system.l2.CleanEvict_mshr_miss_rate::.writebacks          inf                       # mshr miss rate for CleanEvict accesses
system.l2.CleanEvict_mshr_miss_rate::total          inf                       # mshr miss rate for CleanEvict accesses
system.l2.ReadExReq_hits::.cpu.data                14                       # number of ReadExReq hits
system.l2.ReadExReq_hits::total                    14                       # number of ReadExReq hits
system.l2.ReadExReq_misses::.cpu.data          326398                       # number of ReadExReq misses
system.l2.ReadExReq_misses::total              326398                       # number of ReadExReq misses
system.l2.ReadExReq_miss_latency::.cpu.data  34389510500                       # number of ReadExReq miss cycles
system.l2.ReadExReq_miss_latency::total   34389510500                       # number of ReadExReq miss cycles
system.l2.ReadExReq_accesses::.cpu.data        326412                       # number of ReadExReq accesses(hits+misses)
system.l2.ReadExReq_accesses::total            326412                       # number of ReadExReq accesses(hits+misses)
system.l2.ReadExReq_miss_rate::.cpu.data     0.999957                       # miss rate for ReadExReq accesses
system.l2.ReadExReq_miss_rate::total         0.999957                       # miss rate for ReadExReq accesses
system.l2.ReadExReq_avg_miss_latency::.cpu.data 105360.665507                       # average ReadExReq miss latency
system.l2.ReadExReq_avg_miss_latency::total 105360.665507                       # average ReadExReq miss latency
system.l2.ReadExReq_mshr_misses::.cpu.data       326398                       # number of ReadExReq MSHR misses
system.l2.ReadExReq_mshr_misses::total         326398                       # number of ReadExReq MSHR misses
system.l2.ReadExReq_mshr_miss_latency::.cpu.data  31125540500                       # number of ReadExReq MSHR miss cycles
system.l2.ReadExReq_mshr_miss_latency::total  31125540500                       # number of ReadExReq MSHR miss cycles
system.l2.ReadExReq_mshr_miss_rate::.cpu.data     0.999957                       # mshr miss rate for ReadExReq accesses
system.l2.ReadExReq_mshr_miss_rate::total     0.999957                       # mshr miss rate for ReadExReq accesses
system.l2.ReadExReq_avg_mshr_miss_latency::.cpu.data 95360.696144                       # average ReadExReq mshr miss latency
system.l2.ReadExReq_avg_mshr_miss_latency::total 95360.696144                       # average ReadExReq mshr miss latency
system.l2.ReadCleanReq_hits::.cpu.inst             52                       # number of ReadCleanReq hits
system.l2.ReadCleanReq_hits::.cpu.icache.prefetcher           45                       # number of ReadCleanReq hits
[...]
system.cpu.icache.tags.occ_task_id_percent::1024     0.773438                       # Percentage of cache occupancy per task id
system.cpu.icache.tags.tag_accesses           1371650                       # Number of tag accesses
system.cpu.icache.tags.data_accesses          1371650                       # Number of data accesses
system.cpu.icache.tags.power_state.pwrStateResidencyTicks::UNDEFINED   9303131000                       # Cumulative time (in ticks) in various power states
system.cpu.dtb.walker.power_state.pwrStateResidencyTicks::UNDEFINED   9303131000                       # Cumulative time (in ticks) in various power states
system.cpu.dtb.stage2_mmu.stage2_tlb.walker.power_state.pwrStateResidencyTicks::UNDEFINED   9303131000                       # Cumulative time (in ticks) in various power states
system.cpu.itb.walker.power_state.pwrStateResidencyTicks::UNDEFINED   9303131000                       # Cumulative time (in ticks) in various power states
system.cpu.itb.stage2_mmu.stage2_tlb.walker.power_state.pwrStateResidencyTicks::UNDEFINED   9303131000                       # Cumulative time (in ticks) in various power states
system.cpu.dcache.demand_hits::.cpu.data      3101070                       # number of demand (read+write) hits
system.cpu.dcache.demand_hits::total          3101070                       # number of demand (read+write) hits
system.cpu.dcache.overall_hits::.cpu.data      3101074                       # number of overall hits
system.cpu.dcache.overall_hits::total         3101074                       # number of overall hits
system.cpu.dcache.demand_misses::.cpu.data      1460808                       # number of demand (read+write) misses
system.cpu.dcache.demand_misses::total        1460808                       # number of demand (read+write) misses
system.cpu.dcache.overall_misses::.cpu.data      1460811                       # number of overall misses
system.cpu.dcache.overall_misses::total       1460811                       # number of overall misses
system.cpu.dcache.demand_miss_latency::.cpu.data 127714101527                       # number of demand (read+write) miss cycles
system.cpu.dcache.demand_miss_latency::total 127714101527                       # number of demand (read+write) miss cycles
system.cpu.dcache.overall_miss_latency::.cpu.data 127714101527                       # number of overall miss cycles
system.cpu.dcache.overall_miss_latency::total 127714101527                       # number of overall miss cycles
system.cpu.dcache.demand_accesses::.cpu.data      4561878                       # number of demand (read+write) accesses
system.cpu.dcache.demand_accesses::total      4561878                       # number of demand (read+write) accesses
system.cpu.dcache.overall_accesses::.cpu.data      4561885                       # number of overall (read+write) accesses
system.cpu.dcache.overall_accesses::total      4561885                       # number of overall (read+write) accesses
system.cpu.dcache.demand_miss_rate::.cpu.data     0.320221                       # miss rate for demand accesses
system.cpu.dcache.demand_miss_rate::total     0.320221                       # miss rate for demand accesses
system.cpu.dcache.overall_miss_rate::.cpu.data     0.320221                       # miss rate for overall accesses
system.cpu.dcache.overall_miss_rate::total     0.320221                       # miss rate for overall accesses
system.cpu.dcache.demand_avg_miss_latency::.cpu.data 87427.027732                       # average overall miss latency
system.cpu.dcache.demand_avg_miss_latency::total 87427.027732                       # average overall miss latency
system.cpu.dcache.overall_avg_miss_latency::.cpu.data 87426.848187                       # average overall miss latency
system.cpu.dcache.overall_avg_miss_latency::total 87426.848187                       # average overall miss latency
system.cpu.dcache.blocked_cycles::no_mshrs     15967639                       # number of cycles access was blocked
system.cpu.dcache.blocked_cycles::no_targets          316                       # number of cycles access was blocked
system.cpu.dcache.blocked::no_mshrs            221958                       # number of cycles access was blocked
system.cpu.dcache.blocked::no_targets               1                       # number of cycles access was blocked
system.cpu.dcache.avg_blocked_cycles::no_mshrs    71.939912                       # average number of cycles each access was blocked
system.cpu.dcache.avg_blocked_cycles::no_targets          316                       # average number of cycles each access was blocked
system.cpu.dcache.writebacks::.writebacks       328256                       # number of writebacks
system.cpu.dcache.writebacks::total            328256                       # number of writebacks
system.cpu.dcache.demand_mshr_hits::.cpu.data      1131451                       # number of demand (read+write) MSHR hits
system.cpu.dcache.demand_mshr_hits::total      1131451                       # number of demand (read+write) MSHR hits
system.cpu.dcache.overall_mshr_hits::.cpu.data      1131451                       # number of overall MSHR hits
system.cpu.dcache.overall_mshr_hits::total      1131451                       # number of overall MSHR hits
system.cpu.dcache.demand_mshr_misses::.cpu.data       329357                       # number of demand (read+write) MSHR misses
system.cpu.dcache.demand_mshr_misses::total       329357                       # number of demand (read+write) MSHR misses
system.cpu.dcache.overall_mshr_misses::.cpu.data       329360                       # number of overall MSHR misses
system.cpu.dcache.overall_mshr_misses::total       329360                       # number of overall MSHR misses
system.cpu.dcache.demand_mshr_miss_latency::.cpu.data  35137764984                       # number of demand (read+write) MSHR miss cycles
system.cpu.dcache.demand_mshr_miss_latency::total  35137764984                       # number of demand (read+write) MSHR miss cycles
system.cpu.dcache.overall_mshr_miss_latency::.cpu.data  35138034984                       # number of overall MSHR miss cycles
system.cpu.dcache.overall_mshr_miss_latency::total  35138034984                       # number of overall MSHR miss cycles
system.cpu.dcache.demand_mshr_miss_rate::.cpu.data     0.072198                       # mshr miss rate for demand accesses
system.cpu.dcache.demand_mshr_miss_rate::total     0.072198                       # mshr miss rate for demand accesses
system.cpu.dcache.overall_mshr_miss_rate::.cpu.data     0.072198                       # mshr miss rate for overall accesses
system.cpu.dcache.overall_mshr_miss_rate::total     0.072198                       # mshr miss rate for overall accesses
system.cpu.dcache.demand_avg_mshr_miss_latency::.cpu.data 106685.951669                       # average overall mshr miss latency
system.cpu.dcache.demand_avg_mshr_miss_latency::total 106685.951669                       # average overall mshr miss latency
system.cpu.dcache.overall_avg_mshr_miss_latency::.cpu.data 106685.799684                       # average overall mshr miss latency
system.cpu.dcache.overall_avg_mshr_miss_latency::total 106685.799684                       # average overall mshr miss latency
system.cpu.dcache.replacements                 328335                       # number of replacements
system.cpu.dcache.ReadReq_hits::.cpu.data      3094644                       # number of ReadReq hits
system.cpu.dcache.ReadReq_hits::total         3094644                       # number of ReadReq hits
system.cpu.dcache.ReadReq_misses::.cpu.data          343                       # number of ReadReq misses
system.cpu.dcache.ReadReq_misses::total           343                       # number of ReadReq misses
system.cpu.dcache.ReadReq_miss_latency::.cpu.data     19789000                       # number of ReadReq miss cycles
system.cpu.dcache.ReadReq_miss_latency::total     19789000                       # number of ReadReq miss cycles
system.cpu.dcache.ReadReq_accesses::.cpu.data      3094987                       # number of ReadReq accesses(hits+misses)
system.cpu.dcache.ReadReq_accesses::total      3094987                       # number of ReadReq accesses(hits+misses)
system.cpu.dcache.ReadReq_miss_rate::.cpu.data     0.000111                       # miss rate for ReadReq accesses
system.cpu.dcache.ReadReq_miss_rate::total     0.000111                       # miss rate for ReadReq accesses
system.cpu.dcache.ReadReq_avg_miss_latency::.cpu.data 57693.877551                       # average ReadReq miss latency
system.cpu.dcache.ReadReq_avg_miss_latency::total 57693.877551                       # average ReadReq miss latency
system.cpu.dcache.ReadReq_mshr_hits::.cpu.data          224                       # number of ReadReq MSHR hits
system.cpu.dcache.ReadReq_mshr_hits::total          224                       # number of ReadReq MSHR hits
system.cpu.dcache.ReadReq_mshr_misses::.cpu.data          119                       # number of ReadReq MSHR misses
system.cpu.dcache.ReadReq_mshr_misses::total          119                       # number of ReadReq MSHR misses
system.cpu.dcache.ReadReq_mshr_miss_latency::.cpu.data      8442500                       # number of ReadReq MSHR miss cycles
system.cpu.dcache.ReadReq_mshr_miss_latency::total      8442500                       # number of ReadReq MSHR miss cycles
system.cpu.dcache.ReadReq_mshr_miss_rate::.cpu.data     0.000038                       # mshr miss rate for ReadReq accesses
system.cpu.dcache.ReadReq_mshr_miss_rate::total     0.000038                       # mshr miss rate for ReadReq accesses
system.cpu.dcache.ReadReq_avg_mshr_miss_latency::.cpu.data 70945.378151                       # average ReadReq mshr miss latency
system.cpu.dcache.ReadReq_avg_mshr_miss_latency::total 70945.378151                       # average ReadReq mshr miss latency
system.cpu.dcache.WriteReq_hits::.cpu.data         6426                       # number of WriteReq hits
system.cpu.dcache.WriteReq_hits::total           6426                       # number of WriteReq hits
system.cpu.dcache.WriteReq_misses::.cpu.data      1457642                       # number of WriteReq misses
system.cpu.dcache.WriteReq_misses::total      1457642                       # number of WriteReq misses
system.cpu.dcache.WriteReq_miss_latency::.cpu.data 127602067037                       # number of WriteReq miss cycles
system.cpu.dcache.WriteReq_miss_latency::total 127602067037                       # number of WriteReq miss cycles
system.cpu.dcache.WriteReq_accesses::.cpu.data      1464068                       # number of WriteReq accesses(hits+misses)
system.cpu.dcache.WriteReq_accesses::total      1464068                       # number of WriteReq accesses(hits+misses)
system.cpu.dcache.WriteReq_miss_rate::.cpu.data     0.995611                       # miss rate for WriteReq accesses
system.cpu.dcache.WriteReq_miss_rate::total     0.995611                       # miss rate for WriteReq accesses
system.cpu.dcache.WriteReq_avg_miss_latency::.cpu.data 87540.059244                       # average WriteReq miss latency
system.cpu.dcache.WriteReq_avg_miss_latency::total 87540.059244                       # average WriteReq miss latency
system.cpu.dcache.WriteReq_mshr_hits::.cpu.data      1131227                       # number of WriteReq MSHR hits
system.cpu.dcache.WriteReq_mshr_hits::total      1131227                       # number of WriteReq MSHR hits
system.cpu.dcache.WriteReq_mshr_misses::.cpu.data       326415                       # number of WriteReq MSHR misses
system.cpu.dcache.WriteReq_mshr_misses::total       326415                       # number of WriteReq MSHR misses
system.cpu.dcache.WriteReq_mshr_miss_latency::.cpu.data  35039899994                       # number of WriteReq MSHR miss cycles
system.cpu.dcache.WriteReq_mshr_miss_latency::total  35039899994                       # number of WriteReq MSHR miss cycles
system.cpu.dcache.WriteReq_mshr_miss_rate::.cpu.data     0.222951                       # mshr miss rate for WriteReq accesses
system.cpu.dcache.WriteReq_mshr_miss_rate::total     0.222951                       # mshr miss rate for WriteReq accesses
system.cpu.dcache.WriteReq_avg_mshr_miss_latency::.cpu.data 107347.701527                       # average WriteReq mshr miss latency
system.cpu.dcache.WriteReq_avg_mshr_miss_latency::total 107347.701527                       # average WriteReq mshr miss latency
system.cpu.dcache.SoftPFReq_hits::.cpu.data            4                       # number of SoftPFReq hits
system.cpu.dcache.SoftPFReq_hits::total             4                       # number of SoftPFReq hits
system.cpu.dcache.SoftPFReq_misses::.cpu.data            3                       # number of SoftPFReq misses
system.cpu.dcache.SoftPFReq_misses::total            3                       # number of SoftPFReq misses
system.cpu.dcache.SoftPFReq_accesses::.cpu.data            7                       # number of SoftPFReq accesses(hits+misses)
system.cpu.dcache.SoftPFReq_accesses::total            7                       # number of SoftPFReq accesses(hits+misses)
system.cpu.dcache.SoftPFReq_miss_rate::.cpu.data     0.428571                       # miss rate for SoftPFReq accesses
system.cpu.dcache.SoftPFReq_miss_rate::total     0.428571                       # miss rate for SoftPFReq accesses
system.cpu.dcache.SoftPFReq_mshr_misses::.cpu.data            3                       # number of SoftPFReq MSHR misses
system.cpu.dcache.SoftPFReq_mshr_misses::total            3                       # number of SoftPFReq MSHR misses
system.cpu.dcache.SoftPFReq_mshr_miss_latency::.cpu.data       270000                       # number of SoftPFReq MSHR miss cycles
system.cpu.dcache.SoftPFReq_mshr_miss_latency::total       270000                       # number of SoftPFReq MSHR miss cycles
system.cpu.dcache.SoftPFReq_mshr_miss_rate::.cpu.data     0.428571                       # mshr miss rate for SoftPFReq accesses
system.cpu.dcache.SoftPFReq_mshr_miss_rate::total     0.428571                       # mshr miss rate for SoftPFReq accesses
system.cpu.dcache.SoftPFReq_avg_mshr_miss_latency::.cpu.data        90000                       # average SoftPFReq mshr miss latency
system.cpu.dcache.SoftPFReq_avg_mshr_miss_latency::total        90000                       # average SoftPFReq mshr miss latency
system.cpu.dcache.WriteLineReq_misses::.cpu.data         2823                       # number of WriteLineReq misses
system.cpu.dcache.WriteLineReq_misses::total         2823                       # number of WriteLineReq misses
system.cpu.dcache.WriteLineReq_miss_latency::.cpu.data     92245490                       # number of WriteLineReq miss cycles
system.cpu.dcache.WriteLineReq_miss_latency::total     92245490                       # number of WriteLineReq miss cycles
system.cpu.dcache.WriteLineReq_accesses::.cpu.data         2823                       # number of WriteLineReq accesses(hits+misses)
system.cpu.dcache.WriteLineReq_accesses::total         2823                       # number of WriteLineReq accesses(hits+misses)
system.cpu.dcache.WriteLineReq_miss_rate::.cpu.data            1                       # miss rate for WriteLineReq accesses
system.cpu.dcache.WriteLineReq_miss_rate::total            1                       # miss rate for WriteLineReq accesses
system.cpu.dcache.WriteLineReq_avg_miss_latency::.cpu.data 32676.404534                       # average WriteLineReq miss latency
system.cpu.dcache.WriteLineReq_avg_miss_latency::total 32676.404534                       # average WriteLineReq miss latency
system.cpu.dcache.WriteLineReq_mshr_misses::.cpu.data         2823                       # number of WriteLineReq MSHR misses
system.cpu.dcache.WriteLineReq_mshr_misses::total         2823                       # number of WriteLineReq MSHR misses
system.cpu.dcache.WriteLineReq_mshr_miss_latency::.cpu.data     89422490                       # number of WriteLineReq MSHR miss cycles
system.cpu.dcache.WriteLineReq_mshr_miss_latency::total     89422490                       # number of WriteLineReq MSHR miss cycles
system.cpu.dcache.WriteLineReq_mshr_miss_rate::.cpu.data            1                       # mshr miss rate for WriteLineReq accesses
system.cpu.dcache.WriteLineReq_mshr_miss_rate::total            1                       # mshr miss rate for WriteLineReq accesses
system.cpu.dcache.WriteLineReq_avg_mshr_miss_latency::.cpu.data 31676.404534                       # average WriteLineReq mshr miss latency
system.cpu.dcache.WriteLineReq_avg_mshr_miss_latency::total 31676.404534                       # average WriteLineReq mshr miss latency
system.cpu.dcache.LoadLockedReq_hits::.cpu.data           18                       # number of LoadLockedReq hits
system.cpu.dcache.LoadLockedReq_hits::total           18                       # number of LoadLockedReq hits
system.cpu.dcache.LoadLockedReq_accesses::.cpu.data           18                       # number of LoadLockedReq accesses(hits+misses)
system.cpu.dcache.LoadLockedReq_accesses::total           18                       # number of LoadLockedReq accesses(hits+misses)
system.cpu.dcache.StoreCondReq_hits::.cpu.data           16                       # number of StoreCondReq hits
system.cpu.dcache.StoreCondReq_hits::total           16                       # number of StoreCondReq hits
system.cpu.dcache.StoreCondReq_accesses::.cpu.data           16                       # number of StoreCondReq accesses(hits+misses)
system.cpu.dcache.StoreCondReq_accesses::total           16                       # number of StoreCondReq accesses(hits+misses)
system.cpu.dcache.power_state.pwrStateResidencyTicks::UNDEFINED   9303131000                       # Cumulative time (in ticks) in various power states
system.cpu.dcache.tags.tagsinuse          1021.594755                       # Cycle average of tags in use
system.cpu.dcache.tags.total_refs             3430467                       # Total number of references to valid blocks.
system.cpu.dcache.tags.sampled_refs            329359                       # Sample count of references to valid blocks.
system.cpu.dcache.tags.avg_refs             10.415586                       # Average number of references to valid blocks.
system.cpu.dcache.tags.warmup_cycle            176500                       # Cycle when the warmup percentage was hit.
system.cpu.dcache.tags.occ_blocks::.cpu.data  1021.594755                       # Average occupied blocks per requestor
system.cpu.dcache.tags.occ_percent::.cpu.data     0.997651                       # Average percentage of cache occupancy
system.cpu.dcache.tags.occ_percent::total     0.997651                       # Average percentage of cache occupancy
system.cpu.dcache.tags.occ_task_id_blocks::1024         1024                       # Occupied blocks per task id
system.cpu.dcache.tags.age_task_id_blocks_1024::0          333                       # Occupied blocks per task id
system.cpu.dcache.tags.age_task_id_blocks_1024::1          690                       # Occupied blocks per task id
system.cpu.dcache.tags.age_task_id_blocks_1024::3            1                       # Occupied blocks per task id
system.cpu.dcache.tags.occ_task_id_percent::1024            1                       # Percentage of cache occupancy per task id
system.cpu.dcache.tags.tag_accesses           9453197                       # Number of tag accesses
system.cpu.dcache.tags.data_accesses          9453197                       # Number of data accesses
system.cpu.dcache.tags.power_state.pwrStateResidencyTicks::UNDEFINED   9303131000                       # Cumulative time (in ticks) in various power states
system.cpu.power_state.pwrStateResidencyTicks::ON   9303131000                       # Cumulative time (in ticks) in various power states

---------- End Simulation Statistics   ----------
