
---------- Begin Simulation Statistics ----------
final_tick                                 6027859000                       # Number of ticks from beginning of simulation (restored from checkpoints and never reset)
host_inst_rate                                  53964                       # Simulator instruction rate (inst/s)
host_mem_usage                                 915000                       # Number of bytes of host memory used
host_op_rate                                    64566                       # Simulator op (including micro ops) rate (op/s)
host_seconds                                   185.31                       # Real time elapsed on the host
host_tick_rate                               32529006                       # Simulator tick rate (ticks/s)
sim_freq                                 1000000000000                       # Frequency of simulated ticks
sim_insts                                    10000001                       # Number of instructions simulated
sim_ops                                      11964616                       # Number of ops (including micro ops) simulated
sim_seconds                                  0.006028                       # Number of seconds simulated
sim_ticks                                  6027859000                       # Number of ticks simulated
system.cpu.branchPred.BTBCorrect                    0                       # Number of correct BTB predictions (this stat may not work properly.
system.cpu.branchPred.BTBHitPct             95.250843                       # BTB Hit Percentage
system.cpu.branchPred.BTBHits                 1459823                       # Number of BTB hits
system.cpu.branchPred.BTBLookups              1532609                       # Number of BTB lookups
system.cpu.branchPred.RASInCorrect               1216                       # Number of incorrect RAS predictions.
system.cpu.branchPred.condIncorrect            119491                       # Number of conditional branches incorrect
system.cpu.branchPred.condPredicted           2218734                       # Number of conditional branches predicted
system.cpu.branchPred.indirectHits             105286                       # Number of indirect target hits.
system.cpu.branchPred.indirectLookups          140765                       # Number of indirect predictor lookups.
system.cpu.branchPred.indirectMisses            35479                       # Number of indirect misses.
system.cpu.branchPred.lookups                 3108748                       # Number of BP lookups
system.cpu.branchPred.usedRAS                  336577                       # Number of times the RAS was used to get a target.
system.cpu.branchPredindirectMispredicted        10654                       # Number of mispredicted indirect branches.
system.cpu.cc_regfile_reads                   3245373                       # number of cc regfile reads
system.cpu.cc_regfile_writes                  3304240                       # number of cc regfile writes
system.cpu.commit.amos                              0                       # Number of atomic instructions committed
system.cpu.commit.branchMispredicts             97517                       # The number of times a branch was mispredicted
system.cpu.commit.branches                    2395517                       # Number of branches committed
system.cpu.commit.bw_lim_events                504814                       # number cycles where commit BW limit reached
system.cpu.commit.commitNonSpecStalls             575                       # The number of times commit has been forced to stall to communicate backwards
system.cpu.commit.commitSquashedInsts         1928023                       # The number of squashed insts skipped by commit
system.cpu.commit.committedInsts             10020916                       # Number of instructions committed
system.cpu.commit.committedOps               11985531                       # Number of ops (including micro ops) committed
system.cpu.commit.committed_per_cycle::samples     10649319                       # Number of insts commited each cycle
system.cpu.commit.committed_per_cycle::mean     1.125474                       # Number of insts commited each cycle
system.cpu.commit.committed_per_cycle::stdev     2.119125                       # Number of insts commited each cycle
system.cpu.commit.committed_per_cycle::underflows            0      0.00%      0.00% # Number of insts commited each cycle
system.cpu.commit.committed_per_cycle::0      6893752     64.73%     64.73% # Number of insts commited each cycle
system.cpu.commit.committed_per_cycle::1      1383133     12.99%     77.72% # Number of insts commited each cycle
system.cpu.commit.committed_per_cycle::2       662690      6.22%     83.95% # Number of insts commited each cycle
system.cpu.commit.committed_per_cycle::3       430536      4.04%     87.99% # Number of insts commited each cycle
system.cpu.commit.committed_per_cycle::4       334851      3.14%     91.13% # Number of insts commited each cycle
system.cpu.commit.committed_per_cycle::5       150567      1.41%     92.55% # Number of insts commited each cycle
system.cpu.commit.committed_per_cycle::6       168173      1.58%     94.13% # Number of insts commited each cycle
system.cpu.commit.committed_per_cycle::7       120803      1.13%     95.26% # Number of insts commited each cycle
system.cpu.commit.committed_per_cycle::8       504814      4.74%    100.00% # Number of insts commited each cycle
system.cpu.commit.committed_per_cycle::overflows            0      0.00%    100.00% # Number of insts commited each cycle
system.cpu.commit.committed_per_cycle::min_value            0                       # Number of insts commited each cycle
system.cpu.commit.committed_per_cycle::max_value            8                       # Number of insts commited each cycle
system.cpu.commit.committed_per_cycle::total     10649319                       # Number of insts commited each cycle
system.cpu.commit.fp_insts                          0                       # Number of committed floating point instructions.
system.cpu.commit.function_calls               279796                       # Number of function calls committed.
system.cpu.commit.int_insts                  10982358                       # Number of committed integer instructions.
system.cpu.commit.loads                       2585308                       # Number of loads committed
system.cpu.commit.membars                         562                       # Number of memory barriers committed
system.cpu.commit.op_class_0::No_OpClass            6      0.00%      0.00% # Class of committed instruction
system.cpu.commit.op_class_0::IntAlu          7768284     64.81%     64.81% # Class of committed instruction
system.cpu.commit.op_class_0::IntMult          109923      0.92%     65.73% # Class of committed instruction
system.cpu.commit.op_class_0::IntDiv             9901      0.08%     65.81% # Class of committed instruction
system.cpu.commit.op_class_0::FloatAdd              0      0.00%     65.81% # Class of committed instruction
system.cpu.commit.op_class_0::FloatCmp              1      0.00%     65.81% # Class of committed instruction
system.cpu.commit.op_class_0::FloatCvt             74      0.00%     65.81% # Class of committed instruction
system.cpu.commit.op_class_0::FloatMult            37      0.00%     65.81% # Class of committed instruction
system.cpu.commit.op_class_0::FloatMultAcc            0      0.00%     65.81% # Class of committed instruction
system.cpu.commit.op_class_0::FloatDiv              0      0.00%     65.81% # Class of committed instruction
system.cpu.commit.op_class_0::FloatMisc            38      0.00%     65.81% # Class of committed instruction
system.cpu.commit.op_class_0::FloatSqrt             2      0.00%     65.81% # Class of committed instruction
system.cpu.commit.op_class_0::SimdAdd              25      0.00%     65.82% # Class of committed instruction
system.cpu.commit.op_class_0::SimdAddAcc            0      0.00%     65.82% # Class of committed instruction
system.cpu.commit.op_class_0::SimdAlu              24      0.00%     65.82% # Class of committed instruction
system.cpu.commit.op_class_0::SimdCmp              24      0.00%     65.82% # Class of committed instruction
system.cpu.commit.op_class_0::SimdCvt               0      0.00%     65.82% # Class of committed instruction
system.cpu.commit.op_class_0::SimdMisc             86      0.00%     65.82% # Class of committed instruction
system.cpu.commit.op_class_0::SimdMult              0      0.00%     65.82% # Class of committed instruction
system.cpu.commit.op_class_0::SimdMultAcc            0      0.00%     65.82% # Class of committed instruction
system.cpu.commit.op_class_0::SimdShift             0      0.00%     65.82% # Class of committed instruction
system.cpu.commit.op_class_0::SimdShiftAcc            0      0.00%     65.82% # Class of committed instruction
system.cpu.commit.op_class_0::SimdDiv               0      0.00%     65.82% # Class of committed instruction
system.cpu.commit.op_class_0::SimdSqrt              0      0.00%     65.82% # Class of committed instruction
system.cpu.commit.op_class_0::SimdFloatAdd            0      0.00%     65.82% # Class of committed instruction
system.cpu.commit.op_class_0::SimdFloatAlu            0      0.00%     65.82% # Class of committed instruction
system.cpu.commit.op_class_0::SimdFloatCmp            0      0.00%     65.82% # Class of committed instruction
system.cpu.commit.op_class_0::SimdFloatCvt            0      0.00%     65.82% # Class of committed instruction
system.cpu.commit.op_class_0::SimdFloatDiv            0      0.00%     65.82% # Class of committed instruction
system.cpu.commit.op_class_0::SimdFloatMisc            0      0.00%     65.82% # Class of committed instruction
system.cpu.commit.op_class_0::SimdFloatMult            0      0.00%     65.82% # Class of committed instruction
system.cpu.commit.op_class_0::SimdFloatMultAcc            0      0.00%     65.82% # Class of committed instruction
system.cpu.commit.op_class_0::SimdFloatSqrt            0      0.00%     65.82% # Class of committed instruction
system.cpu.commit.op_class_0::SimdReduceAdd            0      0.00%     65.82% # Class of committed instruction
system.cpu.commit.op_class_0::SimdReduceAlu            0      0.00%     65.82% # Class of committed instruction
system.cpu.commit.op_class_0::SimdReduceCmp            0      0.00%     65.82% # Class of committed instruction
system.cpu.commit.op_class_0::SimdFloatReduceAdd            0      0.00%     65.82% # Class of committed instruction
system.cpu.commit.op_class_0::SimdFloatReduceCmp            0      0.00%     65.82% # Class of committed instruction
system.cpu.commit.op_class_0::SimdAes               0      0.00%     65.82% # Class of committed instruction
system.cpu.commit.op_class_0::SimdAesMix            0      0.00%     65.82% # Class of committed instruction
system.cpu.commit.op_class_0::SimdSha1Hash            0      0.00%     65.82% # Class of committed instruction
system.cpu.commit.op_class_0::SimdSha1Hash2            0      0.00%     65.82% # Class of committed instruction
system.cpu.commit.op_class_0::SimdSha256Hash            0      0.00%     65.82% # Class of committed instruction
system.cpu.commit.op_class_0::SimdSha256Hash2            0      0.00%     65.82% # Class of committed instruction
system.cpu.commit.op_class_0::SimdShaSigma2            0      0.00%     65.82% # Class of committed instruction
system.cpu.commit.op_class_0::SimdShaSigma3            0      0.00%     65.82% # Class of committed instruction
system.cpu.commit.op_class_0::SimdPredAlu            0      0.00%     65.82% # Class of committed instruction
system.cpu.commit.op_class_0::MemRead         2585308     21.57%     87.39% # Class of committed instruction
system.cpu.commit.op_class_0::MemWrite        1511798     12.61%    100.00% # Class of committed instruction
system.cpu.commit.op_class_0::FloatMemRead            0      0.00%    100.00% # Class of committed instruction
system.cpu.commit.op_class_0::FloatMemWrite            0      0.00%    100.00% # Class of committed instruction
system.cpu.commit.op_class_0::IprAccess             0      0.00%    100.00% # Class of committed instruction
system.cpu.commit.op_class_0::InstPrefetch            0      0.00%    100.00% # Class of committed instruction
system.cpu.commit.op_class_0::total          11985531                       # Class of committed instruction
system.cpu.commit.refs                        4097106                       # Number of memory references committed
system.cpu.commit.swp_count                         0                       # Number of s/w prefetches committed
system.cpu.commit.vec_insts                      1907                       # Number of committed Vector instructions.
system.cpu.committedInsts                    10000001                       # Number of Instructions Simulated
system.cpu.committedOps                      11964616                       # Number of Ops (including micro ops) Simulated
system.cpu.cpi                               1.205577                       # CPI: Cycles Per Instruction
system.cpu.cpi_total                         1.205577                       # CPI: Total CPI of All Threads
system.cpu.decode.BlockedCycles               1187212                       # Number of cycles decode is blocked
system.cpu.decode.BranchMispred                 22295                       # Number of times decode detected a branch misprediction
system.cpu.decode.BranchResolved              1417712                       # Number of times decode resolved a branch
system.cpu.decode.DecodedInsts               14575046                       # Number of instructions handled by decode
system.cpu.decode.IdleCycles                  6727219                       # Number of cycles decode is idle
system.cpu.decode.RunCycles                   2813751                       # Number of cycles decode is running
system.cpu.decode.SquashCycles                  98437                       # Number of cycles decode is squashing
system.cpu.decode.SquashedInsts                 67588                       # Number of squashed instructions handled by decode
system.cpu.decode.UnblockCycles                123117                       # Number of cycles decode is unblocking
system.cpu.dtb.accesses                             0                       # DTB accesses
system.cpu.dtb.align_faults                         0                       # Number of TLB faults due to alignment restrictions
system.cpu.dtb.domain_faults                        0                       # Number of TLB faults due to domain restrictions
system.cpu.dtb.flush_entries                        0                       # Number of entries that have been flushed from TLB
system.cpu.dtb.flush_tlb                            0                       # Number of times complete TLB was flushed
system.cpu.dtb.flush_tlb_asid                       0                       # Number of times TLB was flushed by ASID
system.cpu.dtb.flush_tlb_mva                        0                       # Number of times TLB was flushed by MVA
system.cpu.dtb.flush_tlb_mva_asid                   0                       # Number of times TLB was flushed by MVA & ASID
system.cpu.dtb.hits                                 0                       # DTB hits
system.cpu.dtb.inst_accesses                        0                       # ITB inst accesses
system.cpu.dtb.inst_hits                            0                       # ITB inst hits
system.cpu.dtb.inst_misses                          0                       # ITB inst misses
system.cpu.dtb.misses                               0                       # DTB misses
system.cpu.dtb.perms_faults                         0                       # Number of TLB faults due to permissions restrictions
system.cpu.dtb.prefetch_faults                      0                       # Number of TLB faults due to prefetch
system.cpu.dtb.read_accesses                        0                       # DTB read accesses
system.cpu.dtb.read_hits                            0                       # DTB read hits
system.cpu.dtb.read_misses                          0                       # DTB read misses
system.cpu.dtb.stage2_mmu.stage2_tlb.accesses            0                       # DTB accesses
system.cpu.dtb.stage2_mmu.stage2_tlb.align_faults            0                       # Number of TLB faults due to alignment restrictions
system.cpu.dtb.stage2_mmu.stage2_tlb.domain_faults            0                       # Number of TLB faults due to domain restrictions
system.cpu.dtb.stage2_mmu.stage2_tlb.flush_entries            0                       # Number of entries that have been flushed from TLB
system.cpu.dtb.stage2_mmu.stage2_tlb.flush_tlb            0                       # Number of times complete TLB was flushed
system.cpu.dtb.stage2_mmu.stage2_tlb.flush_tlb_asid            0                       # Number of times TLB was flushed by ASID
system.cpu.dtb.stage2_mmu.stage2_tlb.flush_tlb_mva            0                       # Number of times TLB was flushed by MVA
system.cpu.dtb.stage2_mmu.stage2_tlb.flush_tlb_mva_asid            0                       # Number of times TLB was flushed by MVA & ASID
system.cpu.dtb.stage2_mmu.stage2_tlb.hits            0                       # DTB hits
system.cpu.dtb.stage2_mmu.stage2_tlb.inst_accesses            0                       # ITB inst accesses
system.cpu.dtb.stage2_mmu.stage2_tlb.inst_hits            0                       # ITB inst hits
system.cpu.dtb.stage2_mmu.stage2_tlb.inst_misses            0                       # ITB inst misses
system.cpu.dtb.stage2_mmu.stage2_tlb.misses            0                       # DTB misses
system.cpu.dtb.stage2_mmu.stage2_tlb.perms_faults            0                       # Number of TLB faults due to permissions restrictions
system.cpu.dtb.stage2_mmu.stage2_tlb.prefetch_faults            0                       # Number of TLB faults due to prefetch
system.cpu.dtb.stage2_mmu.stage2_tlb.read_accesses            0                       # DTB read accesses
system.cpu.dtb.stage2_mmu.stage2_tlb.read_hits            0                       # DTB read hits
system.cpu.dtb.stage2_mmu.stage2_tlb.read_misses            0                       # DTB read misses
system.cpu.dtb.stage2_mmu.stage2_tlb.walker.walkRequestOrigin_Requested::Data            0                       # Table walker requests started/completed, data/inst
system.cpu.dtb.stage2_mmu.stage2_tlb.walker.walkRequestOrigin_Requested::Inst            0                       # Table walker requests started/completed, data/inst
system.cpu.dtb.stage2_mmu.stage2_tlb.walker.walkRequestOrigin_Requested::total            0                       # Table walker requests started/completed, data/inst
system.cpu.dtb.stage2_mmu.stage2_tlb.walker.walkRequestOrigin_Completed::Data            0                       # Table walker requests started/completed, data/inst
system.cpu.dtb.stage2_mmu.stage2_tlb.walker.walkRequestOrigin_Completed::Inst            0                       # Table walker requests started/completed, data/inst
system.cpu.dtb.stage2_mmu.stage2_tlb.walker.walkRequestOrigin_Completed::total            0                       # Table walker requests started/completed, data/inst
system.cpu.dtb.stage2_mmu.stage2_tlb.walker.walkRequestOrigin::total            0                       # Table walker requests started/completed, data/inst
system.cpu.dtb.stage2_mmu.stage2_tlb.walker.walks            0                       # Table walker walks requested
system.cpu.dtb.stage2_mmu.stage2_tlb.write_accesses            0                       # DTB write accesses
system.cpu.dtb.stage2_mmu.stage2_tlb.write_hits            0                       # DTB write hits
system.cpu.dtb.stage2_mmu.stage2_tlb.write_misses            0                       # DTB write misses
system.cpu.dtb.walker.walkRequestOrigin_Requested::Data            0                       # Table walker requests started/completed, data/inst
system.cpu.dtb.walker.walkRequestOrigin_Requested::Inst            0                       # Table walker requests started/completed, data/inst
system.cpu.dtb.walker.walkRequestOrigin_Requested::total            0                       # Table walker requests started/completed, data/inst
system.cpu.dtb.walker.walkRequestOrigin_Completed::Data            0                       # Table walker requests started/completed, data/inst
system.cpu.dtb.walker.walkRequestOrigin_Completed::Inst            0                       # Table walker requests started/completed, data/inst
system.cpu.dtb.walker.walkRequestOrigin_Completed::total            0                       # Table walker requests started/completed, data/inst
system.cpu.dtb.walker.walkRequestOrigin::total            0                       # Table walker requests started/completed, data/inst
system.cpu.dtb.walker.walks                         0                       # Table walker walks requested
system.cpu.dtb.write_accesses                       0                       # DTB write accesses
system.cpu.dtb.write_hits                           0                       # DTB write hits
system.cpu.dtb.write_misses                         0                       # DTB write misses
system.cpu.fetch.Branches                     3108748                       # Number of branches that fetch encountered
system.cpu.fetch.CacheLines                   1937650                       # Number of cache lines fetched
system.cpu.fetch.Cycles                       3836829                       # Number of cycles fetch has run and was not squashing or blocked
system.cpu.fetch.IcacheSquashes                 61005                       # Number of outstanding Icache misses that were squashed
system.cpu.fetch.IcacheWaitRetryStallCycles          954                       # Number of stall cycles due to full MSHR
system.cpu.fetch.Insts                       12805877                       # Number of instructions fetch has processed
system.cpu.fetch.MiscStallCycles                  564                       # Number of cycles fetch has spent waiting on interrupts, or bad addresses, or out of MSHRs
system.cpu.fetch.PendingTrapStallCycles           458                       # Number of stall cycles due to pending traps
system.cpu.fetch.SquashCycles                  240952                       # Number of cycles fetch has spent squashing
system.cpu.fetch.branchRate                  0.257864                       # Number of branch fetches per cycle
system.cpu.fetch.icacheStallCycles            6990455                       # Number of cycles fetch is stalled on an Icache miss
system.cpu.fetch.predictedBranches            1901686                       # Number of branches that fetch has predicted taken
system.cpu.fetch.rate                        1.062220                       # Number of inst fetches per cycle
system.cpu.fetch.rateDist::samples           10949736                       # Number of instructions fetched each cycle (Total)
system.cpu.fetch.rateDist::mean              1.385158                       # Number of instructions fetched each cycle (Total)
system.cpu.fetch.rateDist::stdev             2.558246                       # Number of instructions fetched each cycle (Total)
system.cpu.fetch.rateDist::underflows               0      0.00%      0.00% # Number of instructions fetched each cycle (Total)
system.cpu.fetch.rateDist::0                  7775880     71.01%     71.01% # Number of instructions fetched each cycle (Total)
system.cpu.fetch.rateDist::1                   401061      3.66%     74.68% # Number of instructions fetched each cycle (Total)
system.cpu.fetch.rateDist::2                   386854      3.53%     78.21% # Number of instructions fetched each cycle (Total)
system.cpu.fetch.rateDist::3                   422273      3.86%     82.07% # Number of instructions fetched each cycle (Total)
system.cpu.fetch.rateDist::4                   282190      2.58%     84.64% # Number of instructions fetched each cycle (Total)
system.cpu.fetch.rateDist::5                   337398      3.08%     87.73% # Number of instructions fetched each cycle (Total)
system.cpu.fetch.rateDist::6                   296843      2.71%     90.44% # Number of instructions fetched each cycle (Total)
system.cpu.fetch.rateDist::7                   249182      2.28%     92.71% # Number of instructions fetched each cycle (Total)
system.cpu.fetch.rateDist::8                   798055      7.29%    100.00% # Number of instructions fetched each cycle (Total)
system.cpu.fetch.rateDist::overflows                0      0.00%    100.00% # Number of instructions fetched each cycle (Total)
system.cpu.fetch.rateDist::min_value                0                       # Number of instructions fetched each cycle (Total)
system.cpu.fetch.rateDist::max_value                8                       # Number of instructions fetched each cycle (Total)
system.cpu.fetch.rateDist::total             10949736                       # Number of instructions fetched each cycle (Total)
system.cpu.icache.prefetcher.num_hwpf_issued      1167405                       # number of hwpf issued
system.cpu.icache.prefetcher.pfBufferHit      2814156                       # number of redundant prefetches already in prefetch queue
system.cpu.icache.prefetcher.pfIdentified      4677780                       # number of prefetch candidates identified
system.cpu.icache.prefetcher.pfInCache              0                       # number of redundant prefetches already in cache/mshr dropped
system.cpu.icache.prefetcher.pfRemovedFull       477947                       # number of prefetches dropped due to prefetch queue size
system.cpu.icache.prefetcher.pfSpanPage     191077857                       # number of prefetches that crossed the page
system.cpu.idleCycles                         1106035                       # Total number of cycles that the CPU has spent unscheduled due to idling
system.cpu.iew.branchMispredicts               129579                       # Number of branch mispredicts detected at execute
system.cpu.iew.exec_branches                  2590781                       # Number of branches executed
system.cpu.iew.exec_nop                         25324                       # number of nop insts executed
system.cpu.iew.exec_rate                     1.097936                       # Inst execution rate
system.cpu.iew.exec_refs                      4640315                       # number of memory reference insts executed
system.cpu.iew.exec_stores                    1585527                       # Number of stores executed
system.cpu.iew.exec_swp                             0                       # number of swp insts executed
system.cpu.iew.iewBlockCycles                  272048                       # Number of cycles IEW is blocking
system.cpu.iew.iewDispLoadInsts               3087670                       # Number of dispatched load instructions
system.cpu.iew.iewDispNonSpecInsts                656                       # Number of dispatched non-speculative instructions
system.cpu.iew.iewDispSquashedInsts             22778                       # Number of squashed instructions skipped by dispatch
system.cpu.iew.iewDispStoreInsts              1654869                       # Number of dispatched store instructions
system.cpu.iew.iewDispatchedInsts            13916932                       # Number of instructions dispatched to IQ
system.cpu.iew.iewExecLoadInsts               3054788                       # Number of load instructions executed
system.cpu.iew.iewExecSquashedInsts            145642                       # Number of squashed instructions skipped in execute
system.cpu.iew.iewExecutedInsts              13236466                       # Number of executed instructions
system.cpu.iew.iewIQFullEvents                   4850                       # Number of times the IQ has become full, causing a stall
system.cpu.iew.iewIdleCycles                        0                       # Number of cycles IEW is idle
system.cpu.iew.iewLSQFullEvents                 85562                       # Number of times the LSQ has become full, causing a stall
system.cpu.iew.iewSquashCycles                  98437                       # Number of cycles IEW is squashing
system.cpu.iew.iewUnblockCycles                 91421                       # Number of cycles IEW is unblocking
system.cpu.iew.lsq.thread0.blockedLoads             0                       # Number of blocked loads due to partial load-store forwarding
system.cpu.iew.lsq.thread0.cacheBlocked          1042                       # Number of times an access to memory failed due to the cache being blocked
system.cpu.iew.lsq.thread0.forwLoads            51868                       # Number of loads that had data forwarded from stores
system.cpu.iew.lsq.thread0.ignoredResponses          309                       # Number of memory responses ignored because the instruction is squashed
system.cpu.iew.lsq.thread0.invAddrLoads             0                       # Number of loads ignored due to an invalid address
system.cpu.iew.lsq.thread0.invAddrSwpfs             0                       # Number of software prefetches ignored due to an invalid address
system.cpu.iew.lsq.thread0.memOrderViolation          843                       # Number of memory ordering violations
system.cpu.iew.lsq.thread0.rescheduledLoads       131714                       # Number of loads that were rescheduled
system.cpu.iew.lsq.thread0.squashedLoads       502356                       # Number of loads squashed
system.cpu.iew.lsq.thread0.squashedStores       143071                       # Number of stores squashed
system.cpu.iew.memOrderViolationEvents            843                       # Number of memory order violations
system.cpu.iew.predictedNotTakenIncorrect        73285                       # Number of branches that were predicted not taken incorrectly
system.cpu.iew.predictedTakenIncorrect          56294                       # Number of branches that were predicted taken incorrectly
system.cpu.iew.wb_consumers                  12496865                       # num instructions consuming a value
system.cpu.iew.wb_count                      12955099                       # cumulative count of insts written-back
system.cpu.iew.wb_fanout                     0.552620                       # average fanout of values written-back
system.cpu.iew.wb_producers                   6906023                       # num instructions producing a value
system.cpu.iew.wb_rate                       1.074597                       # insts written-back per cycle
system.cpu.iew.wb_sent                       13012446                       # cumulative count of insts sent to commit
system.cpu.int_regfile_reads                 15966712                       # number of integer regfile reads
system.cpu.int_regfile_writes                 9520973                       # number of integer regfile writes
system.cpu.ipc                               0.829478                       # IPC: Instructions Per Cycle
system.cpu.ipc_total                         0.829478                       # IPC: Total IPC of All Threads
system.cpu.iq.FU_type_0::No_OpClass                78      0.00%      0.00% # Type of FU issued
system.cpu.iq.FU_type_0::IntAlu               8549278     63.89%     63.89% # Type of FU issued
system.cpu.iq.FU_type_0::IntMult               110720      0.83%     64.71% # Type of FU issued
system.cpu.iq.FU_type_0::IntDiv                 10066      0.08%     64.79% # Type of FU issued
system.cpu.iq.FU_type_0::FloatAdd                   0      0.00%     64.79% # Type of FU issued
system.cpu.iq.FU_type_0::FloatCmp                   1      0.00%     64.79% # Type of FU issued
system.cpu.iq.FU_type_0::FloatCvt                 732      0.01%     64.79% # Type of FU issued
system.cpu.iq.FU_type_0::FloatMult                641      0.00%     64.80% # Type of FU issued
system.cpu.iq.FU_type_0::FloatMultAcc               0      0.00%     64.80% # Type of FU issued
system.cpu.iq.FU_type_0::FloatDiv                   0      0.00%     64.80% # Type of FU issued
system.cpu.iq.FU_type_0::FloatMisc                702      0.01%     64.80% # Type of FU issued
system.cpu.iq.FU_type_0::FloatSqrt                  2      0.00%     64.80% # Type of FU issued
system.cpu.iq.FU_type_0::SimdAdd                   31      0.00%     64.80% # Type of FU issued
system.cpu.iq.FU_type_0::SimdAddAcc                 0      0.00%     64.80% # Type of FU issued
system.cpu.iq.FU_type_0::SimdAlu                   28      0.00%     64.81% # Type of FU issued
system.cpu.iq.FU_type_0::SimdCmp                   28      0.00%     64.81% # Type of FU issued
system.cpu.iq.FU_type_0::SimdCvt                    0      0.00%     64.81% # Type of FU issued
system.cpu.iq.FU_type_0::SimdMisc                 103      0.00%     64.81% # Type of FU issued
system.cpu.iq.FU_type_0::SimdMult                   0      0.00%     64.81% # Type of FU issued
system.cpu.iq.FU_type_0::SimdMultAcc                0      0.00%     64.81% # Type of FU issued
system.cpu.iq.FU_type_0::SimdShift                  0      0.00%     64.81% # Type of FU issued
system.cpu.iq.FU_type_0::SimdShiftAcc               0      0.00%     64.81% # Type of FU issued
system.cpu.iq.FU_type_0::SimdDiv                    0      0.00%     64.81% # Type of FU issued
system.cpu.iq.FU_type_0::SimdSqrt                   0      0.00%     64.81% # Type of FU issued
system.cpu.iq.FU_type_0::SimdFloatAdd               0      0.00%     64.81% # Type of FU issued
system.cpu.iq.FU_type_0::SimdFloatAlu               0      0.00%     64.81% # Type of FU issued
system.cpu.iq.FU_type_0::SimdFloatCmp               0      0.00%     64.81% # Type of FU issued
system.cpu.iq.FU_type_0::SimdFloatCvt               0      0.00%     64.81% # Type of FU issued
system.cpu.iq.FU_type_0::SimdFloatDiv               0      0.00%     64.81% # Type of FU issued
system.cpu.iq.FU_type_0::SimdFloatMisc              0      0.00%     64.81% # Type of FU issued
system.cpu.iq.FU_type_0::SimdFloatMult              0      0.00%     64.81% # Type of FU issued
system.cpu.iq.FU_type_0::SimdFloatMultAcc            0      0.00%     64.81% # Type of FU issued
system.cpu.iq.FU_type_0::SimdFloatSqrt              0      0.00%     64.81% # Type of FU issued
system.cpu.iq.FU_type_0::SimdReduceAdd              0      0.00%     64.81% # Type of FU issued
system.cpu.iq.FU_type_0::SimdReduceAlu              0      0.00%     64.81% # Type of FU issued
system.cpu.iq.FU_type_0::SimdReduceCmp              0      0.00%     64.81% # Type of FU issued
system.cpu.iq.FU_type_0::SimdFloatReduceAdd            0      0.00%     64.81% # Type of FU issued
system.cpu.iq.FU_type_0::SimdFloatReduceCmp            0      0.00%     64.81% # Type of FU issued
system.cpu.iq.FU_type_0::SimdAes                    0      0.00%     64.81% # Type of FU issued
system.cpu.iq.FU_type_0::SimdAesMix                 0      0.00%     64.81% # Type of FU issued
system.cpu.iq.FU_type_0::SimdSha1Hash               0      0.00%     64.81% # Type of FU issued
system.cpu.iq.FU_type_0::SimdSha1Hash2              0      0.00%     64.81% # Type of FU issued
system.cpu.iq.FU_type_0::SimdSha256Hash             0      0.00%     64.81% # Type of FU issued
system.cpu.iq.FU_type_0::SimdSha256Hash2            0      0.00%     64.81% # Type of FU issued
system.cpu.iq.FU_type_0::SimdShaSigma2              0      0.00%     64.81% # Type of FU issued
system.cpu.iq.FU_type_0::SimdShaSigma3              0      0.00%     64.81% # Type of FU issued
system.cpu.iq.FU_type_0::SimdPredAlu                0      0.00%     64.81% # Type of FU issued
system.cpu.iq.FU_type_0::MemRead              3110069     23.24%     88.05% # Type of FU issued
system.cpu.iq.FU_type_0::MemWrite             1599634     11.95%    100.00% # Type of FU issued
system.cpu.iq.FU_type_0::FloatMemRead               0      0.00%    100.00% # Type of FU issued
system.cpu.iq.FU_type_0::FloatMemWrite              0      0.00%    100.00% # Type of FU issued
system.cpu.iq.FU_type_0::IprAccess                  0      0.00%    100.00% # Type of FU issued
system.cpu.iq.FU_type_0::InstPrefetch               0      0.00%    100.00% # Type of FU issued
system.cpu.iq.FU_type_0::total               13382113                       # Type of FU issued
system.cpu.iq.fp_alu_accesses                       0                       # Number of floating point alu accesses
system.cpu.iq.fp_inst_queue_reads                   0                       # Number of floating instruction queue reads
system.cpu.iq.fp_inst_queue_wakeup_accesses            0                       # Number of floating instruction queue wakeup accesses
system.cpu.iq.fp_inst_queue_writes                  0                       # Number of floating instruction queue writes
system.cpu.iq.fu_busy_cnt                      161358                       # FU busy when requested
system.cpu.iq.fu_busy_rate                   0.012058                       # FU busy rate (busy events/executed inst)
system.cpu.iq.fu_full::No_OpClass                   0      0.00%      0.00% # attempts to use FU when none available
system.cpu.iq.fu_full::IntAlu                   66310     41.09%     41.09% # attempts to use FU when none available
system.cpu.iq.fu_full::IntMult                     20      0.01%     41.11% # attempts to use FU when none available
system.cpu.iq.fu_full::IntDiv                       0      0.00%     41.11% # attempts to use FU when none available
system.cpu.iq.fu_full::FloatAdd                     0      0.00%     41.11% # attempts to use FU when none available
system.cpu.iq.fu_full::FloatCmp                     0      0.00%     41.11% # attempts to use FU when none available
system.cpu.iq.fu_full::FloatCvt                     0      0.00%     41.11% # attempts to use FU when none available
system.cpu.iq.fu_full::FloatMult                    0      0.00%     41.11% # attempts to use FU when none available
system.cpu.iq.fu_full::FloatMultAcc                 0      0.00%     41.11% # attempts to use FU when none available
system.cpu.iq.fu_full::FloatDiv                     0      0.00%     41.11% # attempts to use FU when none available
system.cpu.iq.fu_full::FloatMisc                    0      0.00%     41.11% # attempts to use FU when none available
system.cpu.iq.fu_full::FloatSqrt                    0      0.00%     41.11% # attempts to use FU when none available
system.cpu.iq.fu_full::SimdAdd                      0      0.00%     41.11% # attempts to use FU when none available
system.cpu.iq.fu_full::SimdAddAcc                   0      0.00%     41.11% # attempts to use FU when none available
system.cpu.iq.fu_full::SimdAlu                      1      0.00%     41.11% # attempts to use FU when none available
system.cpu.iq.fu_full::SimdCmp                      2      0.00%     41.11% # attempts to use FU when none available
system.cpu.iq.fu_full::SimdCvt                      0      0.00%     41.11% # attempts to use FU when none available
system.cpu.iq.fu_full::SimdMisc                     0      0.00%     41.11% # attempts to use FU when none available
system.cpu.iq.fu_full::SimdMult                     0      0.00%     41.11% # attempts to use FU when none available
system.cpu.iq.fu_full::SimdMultAcc                  0      0.00%     41.11% # attempts to use FU when none available
system.cpu.iq.fu_full::SimdShift                    0      0.00%     41.11% # attempts to use FU when none available
system.cpu.iq.fu_full::SimdShiftAcc                 0      0.00%     41.11% # attempts to use FU when none available
system.cpu.iq.fu_full::SimdDiv                      0      0.00%     41.11% # attempts to use FU when none available
system.cpu.iq.fu_full::SimdSqrt                     0      0.00%     41.11% # attempts to use FU when none available
system.cpu.iq.fu_full::SimdFloatAdd                 0      0.00%     41.11% # attempts to use FU when none available
system.cpu.iq.fu_full::SimdFloatAlu                 0      0.00%     41.11% # attempts to use FU when none available
system.cpu.iq.fu_full::SimdFloatCmp                 0      0.00%     41.11% # attempts to use FU when none available
system.cpu.iq.fu_full::SimdFloatCvt                 0      0.00%     41.11% # attempts to use FU when none available
system.cpu.iq.fu_full::SimdFloatDiv                 0      0.00%     41.11% # attempts to use FU when none available
system.cpu.iq.fu_full::SimdFloatMisc                0      0.00%     41.11% # attempts to use FU when none available
system.cpu.iq.fu_full::SimdFloatMult                0      0.00%     41.11% # attempts to use FU when none available
system.cpu.iq.fu_full::SimdFloatMultAcc             0      0.00%     41.11% # attempts to use FU when none available
system.cpu.iq.fu_full::SimdFloatSqrt                0      0.00%     41.11% # attempts to use FU when none available
system.cpu.iq.fu_full::SimdReduceAdd                0      0.00%     41.11% # attempts to use FU when none available
system.cpu.iq.fu_full::SimdReduceAlu                0      0.00%     41.11% # attempts to use FU when none available
system.cpu.iq.fu_full::SimdReduceCmp                0      0.00%     41.11% # attempts to use FU when none available
system.cpu.iq.fu_full::SimdFloatReduceAdd            0      0.00%     41.11% # attempts to use FU when none available
system.cpu.iq.fu_full::SimdFloatReduceCmp            0      0.00%     41.11% # attempts to use FU when none available
system.cpu.iq.fu_full::SimdAes                      0      0.00%     41.11% # attempts to use FU when none available
system.cpu.iq.fu_full::SimdAesMix                   0      0.00%     41.11% # attempts to use FU when none available
system.cpu.iq.fu_full::SimdSha1Hash                 0      0.00%     41.11% # attempts to use FU when none available
system.cpu.iq.fu_full::SimdSha1Hash2                0      0.00%     41.11% # attempts to use FU when none available
system.cpu.iq.fu_full::SimdSha256Hash               0      0.00%     41.11% # attempts to use FU when none available
system.cpu.iq.fu_full::SimdSha256Hash2              0      0.00%     41.11% # attempts to use FU when none available
system.cpu.iq.fu_full::SimdShaSigma2                0      0.00%     41.11% # attempts to use FU when none available
system.cpu.iq.fu_full::SimdShaSigma3                0      0.00%     41.11% # attempts to use FU when none available
system.cpu.iq.fu_full::SimdPredAlu                  0      0.00%     41.11% # attempts to use FU when none available
system.cpu.iq.fu_full::MemRead                  59999     37.18%     78.29% # attempts to use FU when none available
system.cpu.iq.fu_full::MemWrite                 35026     21.71%    100.00% # attempts to use FU when none available
system.cpu.iq.fu_full::FloatMemRead                 0      0.00%    100.00% # attempts to use FU when none available
system.cpu.iq.fu_full::FloatMemWrite                0      0.00%    100.00% # attempts to use FU when none available
system.cpu.iq.fu_full::IprAccess                    0      0.00%    100.00% # attempts to use FU when none available
system.cpu.iq.fu_full::InstPrefetch                 0      0.00%    100.00% # attempts to use FU when none available
system.cpu.iq.int_alu_accesses               13538743                       # Number of integer alu accesses
system.cpu.iq.int_inst_queue_reads           37881972                       # Number of integer instruction queue reads
system.cpu.iq.int_inst_queue_wakeup_accesses     12951055                       # Number of integer instruction queue wakeup accesses
system.cpu.iq.int_inst_queue_writes          15810211                       # Number of integer instruction queue writes
system.cpu.iq.iqInstsAdded                   13890952                       # Number of instructions added to the IQ (excludes non-spec)
system.cpu.iq.iqInstsIssued                  13382113                       # Number of instructions issued
system.cpu.iq.iqNonSpecInstsAdded                 656                       # Number of non-speculative instructions added to the IQ
system.cpu.iq.iqSquashedInstsExamined         1926975                       # Number of squashed instructions iterated over during squash; mainly for profiling
system.cpu.iq.iqSquashedInstsIssued             15955                       # Number of squashed instructions issued
system.cpu.iq.iqSquashedNonSpecRemoved             81                       # Number of squashed non-spec instructions that were removed
system.cpu.iq.iqSquashedOperandsExamined      1420537                       # Number of squashed operands that are examined and possibly removed from graph
system.cpu.iq.issued_per_cycle::samples      10949736                       # Number of insts issued each cycle
system.cpu.iq.issued_per_cycle::mean         1.222140                       # Number of insts issued each cycle
system.cpu.iq.issued_per_cycle::stdev        1.852312                       # Number of insts issued each cycle
system.cpu.iq.issued_per_cycle::underflows            0      0.00%      0.00% # Number of insts issued each cycle
system.cpu.iq.issued_per_cycle::0             6351774     58.01%     58.01% # Number of insts issued each cycle
system.cpu.iq.issued_per_cycle::1             1250387     11.42%     69.43% # Number of insts issued each cycle
system.cpu.iq.issued_per_cycle::2             1074059      9.81%     79.24% # Number of insts issued each cycle
system.cpu.iq.issued_per_cycle::3              815006      7.44%     86.68% # Number of insts issued each cycle
system.cpu.iq.issued_per_cycle::4              568845      5.20%     91.88% # Number of insts issued each cycle
system.cpu.iq.issued_per_cycle::5              360060      3.29%     95.16% # Number of insts issued each cycle
system.cpu.iq.issued_per_cycle::6              326781      2.98%     98.15% # Number of insts issued each cycle
system.cpu.iq.issued_per_cycle::7              120368      1.10%     99.25% # Number of insts issued each cycle
system.cpu.iq.issued_per_cycle::8               82456      0.75%    100.00% # Number of insts issued each cycle
system.cpu.iq.issued_per_cycle::overflows            0      0.00%    100.00% # Number of insts issued each cycle
system.cpu.iq.issued_per_cycle::min_value            0                       # Number of insts issued each cycle
system.cpu.iq.issued_per_cycle::max_value            8                       # Number of insts issued each cycle
system.cpu.iq.issued_per_cycle::total        10949736                       # Number of insts issued each cycle
system.cpu.iq.rate                           1.110017                       # Inst issue rate
system.cpu.iq.vec_alu_accesses                   4650                       # Number of vector alu accesses
system.cpu.iq.vec_inst_queue_reads               9298                       # Number of vector instruction queue reads
system.cpu.iq.vec_inst_queue_wakeup_accesses         4044                       # Number of vector instruction queue wakeup accesses
system.cpu.iq.vec_inst_queue_writes              9173                       # Number of vector instruction queue writes
system.cpu.itb.accesses                             0                       # DTB accesses
system.cpu.itb.align_faults                         0                       # Number of TLB faults due to alignment restrictions
system.cpu.itb.domain_faults                        0                       # Number of TLB faults due to domain restrictions
system.cpu.itb.flush_entries                        0                       # Number of entries that have been flushed from TLB
system.cpu.itb.flush_tlb                            0                       # Number of times complete TLB was flushed
system.cpu.itb.flush_tlb_asid                       0                       # Number of times TLB was flushed by ASID
system.cpu.itb.flush_tlb_mva                        0                       # Number of times TLB was flushed by MVA
system.cpu.itb.flush_tlb_mva_asid                   0                       # Number of times TLB was flushed by MVA & ASID
system.cpu.itb.hits                                 0                       # DTB hits
system.cpu.itb.inst_accesses                        0                       # ITB inst accesses
system.cpu.itb.inst_hits                            0                       # ITB inst hits
system.cpu.itb.inst_misses                          0                       # ITB inst misses
system.cpu.itb.misses                               0                       # DTB misses
system.cpu.itb.perms_faults                         0                       # Number of TLB faults due to permissions restrictions
system.cpu.itb.prefetch_faults                      0                       # Number of TLB faults due to prefetch
system.cpu.itb.read_accesses                        0                       # DTB read accesses
system.cpu.itb.read_hits                            0                       # DTB read hits
system.cpu.itb.read_misses                          0                       # DTB read misses
system.cpu.itb.stage2_mmu.stage2_tlb.accesses            0                       # DTB accesses
system.cpu.itb.stage2_mmu.stage2_tlb.align_faults            0                       # Number of TLB faults due to alignment restrictions
system.cpu.itb.stage2_mmu.stage2_tlb.domain_faults            0                       # Number of TLB faults due to domain restrictions
system.cpu.itb.stage2_mmu.stage2_tlb.flush_entries            0                       # Number of entries that have been flushed from TLB
system.cpu.itb.stage2_mmu.stage2_tlb.flush_tlb            0                       # Number of times complete TLB was flushed
system.cpu.itb.stage2_mmu.stage2_tlb.flush_tlb_asid            0                       # Number of times TLB was flushed by ASID
system.cpu.itb.stage2_mmu.stage2_tlb.flush_tlb_mva            0                       # Number of times TLB was flushed by MVA
system.cpu.itb.stage2_mmu.stage2_tlb.flush_tlb_mva_asid            0                       # Number of times TLB was flushed by MVA & ASID
system.cpu.itb.stage2_mmu.stage2_tlb.hits            0                       # DTB hits
system.cpu.itb.stage2_mmu.stage2_tlb.inst_accesses            0                       # ITB inst accesses
system.cpu.itb.stage2_mmu.stage2_tlb.inst_hits            0                       # ITB inst hits
system.cpu.itb.stage2_mmu.stage2_tlb.inst_misses            0                       # ITB inst misses
system.cpu.itb.stage2_mmu.stage2_tlb.misses            0                       # DTB misses
system.cpu.itb.stage2_mmu.stage2_tlb.perms_faults            0                       # Number of TLB faults due to permissions restrictions
system.cpu.itb.stage2_mmu.stage2_tlb.prefetch_faults            0                       # Number of TLB faults due to prefetch
system.cpu.itb.stage2_mmu.stage2_tlb.read_accesses            0                       # DTB read accesses
system.cpu.itb.stage2_mmu.stage2_tlb.read_hits            0                       # DTB read hits
system.cpu.itb.stage2_mmu.stage2_tlb.read_misses            0                       # DTB read misses
system.cpu.itb.stage2_mmu.stage2_tlb.walker.walkRequestOrigin_Requested::Data            0                       # Table walker requests started/completed, data/inst
system.cpu.itb.stage2_mmu.stage2_tlb.walker.walkRequestOrigin_Requested::Inst            0                       # Table walker requests started/completed, data/inst
system.cpu.itb.stage2_mmu.stage2_tlb.walker.walkRequestOrigin_Requested::total            0                       # Table walker requests started/completed, data/inst
system.cpu.itb.stage2_mmu.stage2_tlb.walker.walkRequestOrigin_Completed::Data            0                       # Table walker requests started/completed, data/inst
system.cpu.itb.stage2_mmu.stage2_tlb.walker.walkRequestOrigin_Completed::Inst            0                       # Table walker requests started/completed, data/inst
system.cpu.itb.stage2_mmu.stage2_tlb.walker.walkRequestOrigin_Completed::total            0                       # Table walker requests started/completed, data/inst
system.cpu.itb.stage2_mmu.stage2_tlb.walker.walkRequestOrigin::total            0                       # Table walker requests started/completed, data/inst
system.cpu.itb.stage2_mmu.stage2_tlb.walker.walks            0                       # Table walker walks requested
system.cpu.itb.stage2_mmu.stage2_tlb.write_accesses            0                       # DTB write accesses
system.cpu.itb.stage2_mmu.stage2_tlb.write_hits            0                       # DTB write hits
system.cpu.itb.stage2_mmu.stage2_tlb.write_misses            0                       # DTB write misses
system.cpu.itb.walker.walkRequestOrigin_Requested::Data            0                       # Table walker requests started/completed, data/inst
system.cpu.itb.walker.walkRequestOrigin_Requested::Inst            0                       # Table walker requests started/completed, data/inst
system.cpu.itb.walker.walkRequestOrigin_Requested::total            0                       # Table walker requests started/completed, data/inst
system.cpu.itb.walker.walkRequestOrigin_Completed::Data            0                       # Table walker requests started/completed, data/inst
system.cpu.itb.walker.walkRequestOrigin_Completed::Inst            0                       # Table walker requests started/completed, data/inst
system.cpu.itb.walker.walkRequestOrigin_Completed::total            0                       # Table walker requests started/completed, data/inst
system.cpu.itb.walker.walkRequestOrigin::total            0                       # Table walker requests started/completed, data/inst
system.cpu.itb.walker.walks                         0                       # Table walker walks requested
system.cpu.itb.write_accesses                       0                       # DTB write accesses
system.cpu.itb.write_hits                           0                       # DTB write hits
system.cpu.itb.write_misses                         0                       # DTB write misses
system.cpu.memDep0.conflictingLoads             74679                       # Number of conflicting loads.
system.cpu.memDep0.conflictingStores           103859                       # Number of conflicting stores.
system.cpu.memDep0.insertedLoads              3087670                       # Number of loads inserted to the mem dependence unit.
system.cpu.memDep0.insertedStores             1654869                       # Number of stores inserted to the mem dependence unit.
system.cpu.misc_regfile_reads                 9982620                       # number of misc regfile reads
system.cpu.misc_regfile_writes                   2315                       # number of misc regfile writes
system.cpu.numCycles                         12055771                       # number of cpu cycles simulated
system.cpu.numWorkItemsCompleted                    0                       # number of work items this cpu completed
system.cpu.numWorkItemsStarted                      0                       # number of work items this cpu started
system.cpu.rename.BlockCycles                  422526                       # Number of cycles rename is blocking
system.cpu.rename.CommittedMaps              11774593                       # Number of HB maps that are committed
system.cpu.rename.IQFullEvents                 134324                       # Number of times rename has blocked due to IQ full
system.cpu.rename.IdleCycles                  6813224                       # Number of cycles rename is idle
system.cpu.rename.LQFullEvents                  78750                       # Number of times rename has blocked due to LQ full
system.cpu.rename.ROBFullEvents                  1842                       # Number of times rename has blocked due to ROB full
system.cpu.rename.RenameLookups              21125146                       # Number of register rename lookups that rename has made
system.cpu.rename.RenamedInsts               14345638                       # Number of instructions processed by rename
system.cpu.rename.RenamedOperands            14141239                       # Number of destination operands rename has renamed
system.cpu.rename.RunCycles                   2836018                       # Number of cycles rename is running
system.cpu.rename.SQFullEvents                 200685                       # Number of times rename has blocked due to SQ full
system.cpu.rename.SquashCycles                  98437                       # Number of cycles rename is squashing
system.cpu.rename.UnblockCycles                443742                       # Number of cycles rename is unblocking
system.cpu.rename.UndoneMaps                  2366611                       # Number of HB maps that are undone due to squashing
system.cpu.rename.int_rename_lookups         17377987                       # Number of integer rename lookups
system.cpu.rename.serializeStallCycles         335789                       # count of cycles rename stalled for serializing inst
system.cpu.rename.serializingInsts              15139                       # count of serializing insts renamed
system.cpu.rename.skidInsts                    513386                       # count of insts added to the skid buffer
system.cpu.rename.tempSerializingInsts            675                       # count of temporary serializing insts renamed
system.cpu.rename.vec_rename_lookups             5006                       # Number of vector rename lookups
system.cpu.rob.rob_reads                     24055342                       # The number of ROB reads
system.cpu.rob.rob_writes                    28128915                       # The number of ROB writes
system.cpu.timesIdled                          169484                       # Number of times that the entire CPU went into an idle state and unscheduled itself
system.cpu.vec_regfile_reads                     3177                       # number of vector regfile reads
system.cpu.vec_regfile_writes                    2127                       # number of vector regfile writes
system.cpu.workload.numSyscalls                    24                       # Number of system calls
system.membus.snoop_filter.hit_multi_requests            0                       # Number of requests hitting in the snoop filter with multiple (>1) holders of the requested data.
system.membus.snoop_filter.hit_multi_snoops            0                       # Number of snoops hitting in the snoop filter with multiple (>1) holders of the requested data.
system.membus.snoop_filter.hit_single_requests           14                       # Number of requests hitting in the snoop filter with a single holder of the requested data.
system.membus.snoop_filter.hit_single_snoops            0                       # Number of snoops hitting in the snoop filter with a single holder of the requested data.
system.membus.snoop_filter.tot_requests         17764                       # Total number of requests made to the snoop filter.
system.membus.snoop_filter.tot_snoops               0                       # Total number of snoops made to the snoop filter.
system.tol2bus.snoop_filter.hit_multi_requests          241                       # Number of requests hitting in the snoop filter with multiple (>1) holders of the requested data.
system.tol2bus.snoop_filter.hit_multi_snoops            0                       # Number of snoops hitting in the snoop filter with multiple (>1) holders of the requested data.
system.tol2bus.snoop_filter.hit_single_requests       752087                       # Number of requests hitting in the snoop filter with a single holder of the requested data.
system.tol2bus.snoop_filter.hit_single_snoops            0                       # Number of snoops hitting in the snoop filter with a single holder of the requested data.
system.tol2bus.snoop_filter.tot_requests      1505451                       # Total number of requests made to the snoop filter.
system.tol2bus.snoop_filter.tot_snoops              0                       # Total number of snoops made to the snoop filter.
system.membus.trans_dist::ReadResp               6835                       # Transaction distribution
system.membus.trans_dist::WritebackDirty            3                       # Transaction distribution
system.membus.trans_dist::CleanEvict               11                       # Transaction distribution
system.membus.trans_dist::ReadExReq             10628                       # Transaction distribution
system.membus.trans_dist::ReadExResp            10628                       # Transaction distribution
system.membus.trans_dist::ReadSharedReq          6835                       # Transaction distribution
system.membus.trans_dist::InvalidateReq           287                       # Transaction distribution
system.membus.pkt_count_system.l2.mem_side::system.mem_ctrls.port        35227                       # Packet count per connected master and slave (bytes)
system.membus.pkt_count::total                  35227                       # Packet count per connected master and slave (bytes)
system.membus.pkt_size_system.l2.mem_side::system.mem_ctrls.port      1117824                       # Cumulative packet size per connected master and slave (bytes)
system.membus.pkt_size::total                 1117824                       # Cumulative packet size per connected master and slave (bytes)
system.membus.snoops                                0                       # Total snoops (count)
system.membus.snoopTraffic                          0                       # Total snoop traffic (bytes)
system.membus.snoop_fanout::samples             17750                       # Request fanout histogram
system.membus.snoop_fanout::mean                    0                       # Request fanout histogram
system.membus.snoop_fanout::stdev                   0                       # Request fanout histogram
system.membus.snoop_fanout::underflows              0      0.00%      0.00% # Request fanout histogram
system.membus.snoop_fanout::0                   17750    100.00%    100.00% # Request fanout histogram
system.membus.snoop_fanout::1                       0      0.00%    100.00% # Request fanout histogram
system.membus.snoop_fanout::overflows               0      0.00%    100.00% # Request fanout histogram
system.membus.snoop_fanout::min_value               0                       # Request fanout histogram
system.membus.snoop_fanout::max_value               0                       # Request fanout histogram
system.membus.snoop_fanout::total               17750                       # Request fanout histogram
system.membus.reqLayer0.occupancy            22460000                       # Layer occupancy (ticks)
system.membus.reqLayer0.utilization               0.4                       # Layer utilization (%)
system.membus.respLayer1.occupancy           92304000                       # Layer occupancy (ticks)
system.membus.respLayer1.utilization              1.5                       # Layer utilization (%)
system.membus.power_state.pwrStateResidencyTicks::UNDEFINED   6027859000                       # Cumulative time (in ticks) in various power states
system.tol2bus.trans_dist::ReadResp            739369                       # Transaction distribution
system.tol2bus.trans_dist::WritebackDirty        29657                       # Transaction distribution
system.tol2bus.trans_dist::WritebackClean       718318                       # Transaction distribution
system.tol2bus.trans_dist::CleanEvict            4124                       # Transaction distribution
system.tol2bus.trans_dist::UpgradeReq               1                       # Transaction distribution
system.tol2bus.trans_dist::UpgradeResp              1                       # Transaction distribution
system.tol2bus.trans_dist::ReadExReq            13684                       # Transaction distribution
system.tol2bus.trans_dist::ReadExResp           13684                       # Transaction distribution
system.tol2bus.trans_dist::ReadCleanReq        718574                       # Transaction distribution
system.tol2bus.trans_dist::ReadSharedReq        20795                       # Transaction distribution
system.tol2bus.trans_dist::InvalidateReq          312                       # Transaction distribution
system.tol2bus.trans_dist::InvalidateResp          312                       # Transaction distribution
system.tol2bus.pkt_count_system.cpu.icache.mem_side::system.l2.cpu_side      2155445                       # Packet count per connected master and slave (bytes)
system.tol2bus.pkt_count_system.cpu.dcache.mem_side::system.l2.cpu_side       103351                       # Packet count per connected master and slave (bytes)
system.tol2bus.pkt_count::total               2258796                       # Packet count per connected master and slave (bytes)
system.tol2bus.pkt_size_system.cpu.icache.mem_side::system.l2.cpu_side     91959744                       # Cumulative packet size per connected master and slave (bytes)
system.tol2bus.pkt_size_system.cpu.dcache.mem_side::system.l2.cpu_side      4104512                       # Cumulative packet size per connected master and slave (bytes)
system.tol2bus.pkt_size::total               96064256                       # Cumulative packet size per connected master and slave (bytes)
system.tol2bus.snoops                              35                       # Total snoops (count)
system.tol2bus.snoopTraffic                      1536                       # Total snoop traffic (bytes)
system.tol2bus.snoop_fanout::samples           753380                       # Request fanout histogram
system.tol2bus.snoop_fanout::mean            0.000321                       # Request fanout histogram
system.tol2bus.snoop_fanout::stdev           0.017920                       # Request fanout histogram
system.tol2bus.snoop_fanout::underflows             0      0.00%      0.00% # Request fanout histogram
system.tol2bus.snoop_fanout::0                 753138     99.97%     99.97% # Request fanout histogram
system.tol2bus.snoop_fanout::1                    242      0.03%    100.00% # Request fanout histogram
system.tol2bus.snoop_fanout::2                      0      0.00%    100.00% # Request fanout histogram
system.tol2bus.snoop_fanout::overflows              0      0.00%    100.00% # Request fanout histogram
system.tol2bus.snoop_fanout::min_value              0                       # Request fanout histogram
system.tol2bus.snoop_fanout::max_value              1                       # Request fanout histogram
system.tol2bus.snoop_fanout::total             753380                       # Request fanout histogram
system.tol2bus.reqLayer0.occupancy         1619245684                       # Layer occupancy (ticks)
system.tol2bus.reqLayer0.utilization             26.9                       # Layer utilization (%)
system.tol2bus.respLayer1.occupancy          52617512                       # Layer occupancy (ticks)
system.tol2bus.respLayer1.utilization             0.9                       # Layer utilization (%)
system.tol2bus.respLayer0.occupancy        1077889944                       # Layer occupancy (ticks)
system.tol2bus.respLayer0.utilization            17.9                       # Layer utilization (%)
system.tol2bus.power_state.pwrStateResidencyTicks::UNDEFINED   6027859000                       # Cumulative time (in ticks) in various power states
system.voltage_domain.voltage                       1                       # Voltage in Volts
system.clk_domain.clock                          1000                       # Clock period in ticks
system.l2.demand_hits::.cpu.inst               228057                       # number of demand (read+write) hits
system.l2.demand_hits::.cpu.data                22431                       # number of demand (read+write) hits
system.l2.demand_hits::.cpu.icache.prefetcher       485080                       # number of demand (read+write) hits
system.l2.demand_hits::total                   735568                       # number of demand (read+write) hits
system.l2.overall_hits::.cpu.inst              228057                       # number of overall hits
system.l2.overall_hits::.cpu.data               22431                       # number of overall hits
system.l2.overall_hits::.cpu.icache.prefetcher       485080                       # number of overall hits
system.l2.overall_hits::total                  735568                       # number of overall hits
system.l2.demand_misses::.cpu.inst               5416                       # number of demand (read+write) misses
system.l2.demand_misses::.cpu.data              12048                       # number of demand (read+write) misses
system.l2.demand_misses::total                  17464                       # number of demand (read+write) misses
system.l2.overall_misses::.cpu.inst              5416                       # number of overall misses
system.l2.overall_misses::.cpu.data             12048                       # number of overall misses
system.l2.overall_misses::total                 17464                       # number of overall misses
system.l2.demand_miss_latency::.cpu.inst    429049000                       # number of demand (read+write) miss cycles
system.l2.demand_miss_latency::.cpu.data    931048500                       # number of demand (read+write) miss cycles
system.l2.demand_miss_latency::total       1360097500                       # number of demand (read+write) miss cycles
system.l2.overall_miss_latency::.cpu.inst    429049000                       # number of overall miss cycles
system.l2.overall_miss_latency::.cpu.data    931048500                       # number of overall miss cycles
system.l2.overall_miss_latency::total      1360097500                       # number of overall miss cycles
system.l2.demand_accesses::.cpu.inst           233473                       # number of demand (read+write) accesses
system.l2.demand_accesses::.cpu.data            34479                       # number of demand (read+write) accesses
system.l2.demand_accesses::.cpu.icache.prefetcher       485080                       # number of demand (read+write) accesses
system.l2.demand_accesses::total               753032                       # number of demand (read+write) accesses
system.l2.overall_accesses::.cpu.inst          233473                       # number of overall (read+write) accesses
system.l2.overall_accesses::.cpu.data           34479                       # number of overall (read+write) accesses
system.l2.overall_accesses::.cpu.icache.prefetcher       485080                       # number of overall (read+write) accesses
system.l2.overall_accesses::total              753032                       # number of overall (read+write) accesses
system.l2.demand_miss_rate::.cpu.inst        0.023198                       # miss rate for demand accesses
system.l2.demand_miss_rate::.cpu.data        0.349430                       # miss rate for demand accesses
system.l2.demand_miss_rate::total            0.023192                       # miss rate for demand accesses
system.l2.overall_miss_rate::.cpu.inst       0.023198                       # miss rate for overall accesses
system.l2.overall_miss_rate::.cpu.data       0.349430                       # miss rate for overall accesses
system.l2.overall_miss_rate::total           0.023192                       # miss rate for overall accesses
system.l2.demand_avg_miss_latency::.cpu.inst 79218.796160                       # average overall miss latency
system.l2.demand_avg_miss_latency::.cpu.data 77278.261952                       # average overall miss latency
system.l2.demand_avg_miss_latency::total 77880.067568                       # average overall miss latency
system.l2.overall_avg_miss_latency::.cpu.inst 79218.796160                       # average overall miss latency
system.l2.overall_avg_miss_latency::.cpu.data 77278.261952                       # average overall miss latency
system.l2.overall_avg_miss_latency::total 77880.067568                       # average overall miss latency
system.l2.blocked_cycles::no_mshrs                  0                       # number of cycles access was blocked
system.l2.blocked_cycles::no_targets                0                       # number of cycles access was blocked
system.l2.blocked::no_mshrs                         0                       # number of cycles access was blocked
system.l2.blocked::no_targets                       0                       # number of cycles access was blocked
system.l2.avg_blocked_cycles::no_mshrs            nan                       # average number of cycles each access was blocked
system.l2.avg_blocked_cycles::no_targets          nan                       # average number of cycles each access was blocked
system.l2.writebacks::.writebacks                   3                       # number of writebacks
system.l2.writebacks::total                         3                       # number of writebacks
system.l2.demand_mshr_hits::.cpu.inst               1                       # number of demand (read+write) MSHR hits
system.l2.demand_mshr_hits::total                   1                       # number of demand (read+write) MSHR hits
system.l2.overall_mshr_hits::.cpu.inst              1                       # number of overall MSHR hits
system.l2.overall_mshr_hits::total                  1                       # number of overall MSHR hits
system.l2.demand_mshr_misses::.cpu.inst          5415                       # number of demand (read+write) MSHR misses
system.l2.demand_mshr_misses::.cpu.data         12048                       # number of demand (read+write) MSHR misses
system.l2.demand_mshr_misses::total             17463                       # number of demand (read+write) MSHR misses
system.l2.overall_mshr_misses::.cpu.inst         5415                       # number of overall MSHR misses
system.l2.overall_mshr_misses::.cpu.data        12048                       # number of overall MSHR misses
system.l2.overall_mshr_misses::total            17463                       # number of overall MSHR misses
system.l2.demand_mshr_miss_latency::.cpu.inst    374803000                       # number of demand (read+write) MSHR miss cycles
system.l2.demand_mshr_miss_latency::.cpu.data    810568001                       # number of demand (read+write) MSHR miss cycles
system.l2.demand_mshr_miss_latency::total   1185371001                       # number of demand (read+write) MSHR miss cycles
system.l2.overall_mshr_miss_latency::.cpu.inst    374803000                       # number of overall MSHR miss cycles
system.l2.overall_mshr_miss_latency::.cpu.data    810568001                       # number of overall MSHR miss cycles
system.l2.overall_mshr_miss_latency::total   1185371001                       # number of overall MSHR miss cycles
system.l2.demand_mshr_miss_rate::.cpu.inst     0.023193                       # mshr miss rate for demand accesses
system.l2.demand_mshr_miss_rate::.cpu.data     0.349430                       # mshr miss rate for demand accesses
system.l2.demand_mshr_miss_rate::total       0.023190                       # mshr miss rate for demand accesses
system.l2.overall_mshr_miss_rate::.cpu.inst     0.023193                       # mshr miss rate for overall accesses
system.l2.overall_mshr_miss_rate::.cpu.data     0.349430                       # mshr miss rate for overall accesses
system.l2.overall_mshr_miss_rate::total      0.023190                       # mshr miss rate for overall accesses
system.l2.demand_avg_mshr_miss_latency::.cpu.inst 69215.697138                       # average overall mshr miss latency
system.l2.demand_avg_mshr_miss_latency::.cpu.data 67278.220535                       # average overall mshr miss latency
system.l2.demand_avg_mshr_miss_latency::total 67879.001374                       # average overall mshr miss latency
system.l2.overall_avg_mshr_miss_latency::.cpu.inst 69215.697138                       # average overall mshr miss latency
system.l2.overall_avg_mshr_miss_latency::.cpu.data 67278.220535                       # average overall mshr miss latency
system.l2.overall_avg_mshr_miss_latency::total 67879.001374                       # average overall mshr miss latency
system.l2.replacements                             14                       # number of replacements
system.l2.WritebackDirty_hits::.writebacks        29654                       # number of WritebackDirty hits
system.l2.WritebackDirty_hits::total            29654                       # number of WritebackDirty hits
system.l2.WritebackDirty_accesses::.writebacks        29654                       # number of WritebackDirty accesses(hits+misses)
system.l2.WritebackDirty_accesses::total        29654                       # number of WritebackDirty accesses(hits+misses)
system.l2.WritebackClean_hits::.writebacks       718085                       # number of WritebackClean hits
system.l2.WritebackClean_hits::total           718085                       # number of WritebackClean hits
system.l2.WritebackClean_accesses::.writebacks       718085                       # number of WritebackClean accesses(hits+misses)
system.l2.WritebackClean_accesses::total       718085                       # number of WritebackClean accesses(hits+misses)
system.l2.UpgradeReq_hits::.cpu.data                1                       # number of UpgradeReq hits
system.l2.UpgradeReq_hits::total                    1                       # number of UpgradeReq hits
system.l2.UpgradeReq_accesses::.cpu.data            1                       # number of UpgradeReq accesses(hits+misses)
system.l2.UpgradeReq_accesses::total                1                       # number of UpgradeReq accesses(hits+misses)
system.l2.ReadExReq_hits::.cpu.data              3056                       # number of ReadExReq hits
system.l2.ReadExReq_hits::total                  3056                       # number of ReadExReq hits
system.l2.ReadExReq_misses::.cpu.data           10628                       # number of ReadExReq misses
system.l2.ReadExReq_misses::total               10628                       # number of ReadExReq misses
system.l2.ReadExReq_miss_latency::.cpu.data    814878500                       # number of ReadExReq miss cycles
system.l2.ReadExReq_miss_latency::total     814878500                       # number of ReadExReq miss cycles
system.l2.ReadExReq_accesses::.cpu.data         13684                       # number of ReadExReq accesses(hits+misses)
system.l2.ReadExReq_accesses::total             13684                       # number of ReadExReq accesses(hits+misses)
system.l2.ReadExReq_miss_rate::.cpu.data     0.776673                       # miss rate for ReadExReq accesses
system.l2.ReadExReq_miss_rate::total         0.776673                       # miss rate for ReadExReq accesses
system.l2.ReadExReq_avg_miss_latency::.cpu.data 76672.798269                       # average ReadExReq miss latency
system.l2.ReadExReq_avg_miss_latency::total 76672.798269                       # average ReadExReq miss latency
system.l2.ReadExReq_mshr_misses::.cpu.data        10628                       # number of ReadExReq MSHR misses
system.l2.ReadExReq_mshr_misses::total          10628                       # number of ReadExReq MSHR misses
system.l2.ReadExReq_mshr_miss_latency::.cpu.data    708598001                       # number of ReadExReq MSHR miss cycles
system.l2.ReadExReq_mshr_miss_latency::total    708598001                       # number of ReadExReq MSHR miss cycles
[...]
system.cpu.dcache.demand_accesses::total      4370361                       # number of demand (read+write) accesses
system.cpu.dcache.overall_accesses::.cpu.data      4376405                       # number of overall (read+write) accesses
system.cpu.dcache.overall_accesses::total      4376405                       # number of overall (read+write) accesses
system.cpu.dcache.demand_miss_rate::.cpu.data     0.033687                       # miss rate for demand accesses
system.cpu.dcache.demand_miss_rate::total     0.033687                       # miss rate for demand accesses
system.cpu.dcache.overall_miss_rate::.cpu.data     0.033642                       # miss rate for overall accesses
system.cpu.dcache.overall_miss_rate::total     0.033642                       # miss rate for overall accesses
system.cpu.dcache.demand_avg_miss_latency::.cpu.data 42816.342234                       # average overall miss latency
system.cpu.dcache.demand_avg_miss_latency::total 42816.342234                       # average overall miss latency
system.cpu.dcache.overall_avg_miss_latency::.cpu.data 42814.015764                       # average overall miss latency
system.cpu.dcache.overall_avg_miss_latency::total 42814.015764                       # average overall miss latency
system.cpu.dcache.blocked_cycles::no_mshrs        40545                       # number of cycles access was blocked
system.cpu.dcache.blocked_cycles::no_targets         7259                       # number of cycles access was blocked
system.cpu.dcache.blocked::no_mshrs              1073                       # number of cycles access was blocked
system.cpu.dcache.blocked::no_targets             133                       # number of cycles access was blocked
system.cpu.dcache.avg_blocked_cycles::no_mshrs    37.786580                       # average number of cycles each access was blocked
system.cpu.dcache.avg_blocked_cycles::no_targets    54.578947                       # average number of cycles each access was blocked
system.cpu.dcache.writebacks::.writebacks        29654                       # number of writebacks
system.cpu.dcache.writebacks::total             29654                       # number of writebacks
system.cpu.dcache.demand_mshr_hits::.cpu.data       112441                       # number of demand (read+write) MSHR hits
system.cpu.dcache.demand_mshr_hits::total       112441                       # number of demand (read+write) MSHR hits
system.cpu.dcache.overall_mshr_hits::.cpu.data       112441                       # number of overall MSHR hits
system.cpu.dcache.overall_mshr_hits::total       112441                       # number of overall MSHR hits
system.cpu.dcache.demand_mshr_misses::.cpu.data        34783                       # number of demand (read+write) MSHR misses
system.cpu.dcache.demand_mshr_misses::total        34783                       # number of demand (read+write) MSHR misses
system.cpu.dcache.overall_mshr_misses::.cpu.data        34790                       # number of overall MSHR misses
system.cpu.dcache.overall_mshr_misses::total        34790                       # number of overall MSHR misses
system.cpu.dcache.demand_mshr_miss_latency::.cpu.data   1233399363                       # number of demand (read+write) MSHR miss cycles
system.cpu.dcache.demand_mshr_miss_latency::total   1233399363                       # number of demand (read+write) MSHR miss cycles
system.cpu.dcache.overall_mshr_miss_latency::.cpu.data   1233733863                       # number of overall MSHR miss cycles
system.cpu.dcache.overall_mshr_miss_latency::total   1233733863                       # number of overall MSHR miss cycles
system.cpu.dcache.demand_mshr_miss_rate::.cpu.data     0.007959                       # mshr miss rate for demand accesses
system.cpu.dcache.demand_mshr_miss_rate::total     0.007959                       # mshr miss rate for demand accesses
system.cpu.dcache.overall_mshr_miss_rate::.cpu.data     0.007949                       # mshr miss rate for overall accesses
system.cpu.dcache.overall_mshr_miss_rate::total     0.007949                       # mshr miss rate for overall accesses
system.cpu.dcache.demand_avg_mshr_miss_latency::.cpu.data 35459.832763                       # average overall mshr miss latency
system.cpu.dcache.demand_avg_mshr_miss_latency::total 35459.832763                       # average overall mshr miss latency
system.cpu.dcache.overall_avg_mshr_miss_latency::.cpu.data 35462.312820                       # average overall mshr miss latency
system.cpu.dcache.overall_avg_mshr_miss_latency::total 35462.312820                       # average overall mshr miss latency
system.cpu.dcache.replacements                  33767                       # number of replacements
system.cpu.dcache.ReadReq_hits::.cpu.data      2799004                       # number of ReadReq hits
system.cpu.dcache.ReadReq_hits::total         2799004                       # number of ReadReq hits
system.cpu.dcache.ReadReq_misses::.cpu.data        59479                       # number of ReadReq misses
system.cpu.dcache.ReadReq_misses::total         59479                       # number of ReadReq misses
system.cpu.dcache.ReadReq_miss_latency::.cpu.data   1513073500                       # number of ReadReq miss cycles
system.cpu.dcache.ReadReq_miss_latency::total   1513073500                       # number of ReadReq miss cycles
system.cpu.dcache.ReadReq_accesses::.cpu.data      2858483                       # number of ReadReq accesses(hits+misses)
system.cpu.dcache.ReadReq_accesses::total      2858483                       # number of ReadReq accesses(hits+misses)
system.cpu.dcache.ReadReq_miss_rate::.cpu.data     0.020808                       # miss rate for ReadReq accesses
system.cpu.dcache.ReadReq_miss_rate::total     0.020808                       # miss rate for ReadReq accesses
system.cpu.dcache.ReadReq_avg_miss_latency::.cpu.data 25438.785117                       # average ReadReq miss latency
system.cpu.dcache.ReadReq_avg_miss_latency::total 25438.785117                       # average ReadReq miss latency
system.cpu.dcache.ReadReq_mshr_hits::.cpu.data        38691                       # number of ReadReq MSHR hits
system.cpu.dcache.ReadReq_mshr_hits::total        38691                       # number of ReadReq MSHR hits
system.cpu.dcache.ReadReq_mshr_misses::.cpu.data        20788                       # number of ReadReq MSHR misses
system.cpu.dcache.ReadReq_mshr_misses::total        20788                       # number of ReadReq MSHR misses
system.cpu.dcache.ReadReq_mshr_miss_latency::.cpu.data    354999500                       # number of ReadReq MSHR miss cycles
system.cpu.dcache.ReadReq_mshr_miss_latency::total    354999500                       # number of ReadReq MSHR miss cycles
system.cpu.dcache.ReadReq_mshr_miss_rate::.cpu.data     0.007272                       # mshr miss rate for ReadReq accesses
system.cpu.dcache.ReadReq_mshr_miss_rate::total     0.007272                       # mshr miss rate for ReadReq accesses
system.cpu.dcache.ReadReq_avg_mshr_miss_latency::.cpu.data 17077.135848                       # average ReadReq mshr miss latency
system.cpu.dcache.ReadReq_avg_mshr_miss_latency::total 17077.135848                       # average ReadReq mshr miss latency
system.cpu.dcache.WriteReq_hits::.cpu.data      1424130                       # number of WriteReq hits
system.cpu.dcache.WriteReq_hits::total        1424130                       # number of WriteReq hits
system.cpu.dcache.WriteReq_misses::.cpu.data        87540                       # number of WriteReq misses
system.cpu.dcache.WriteReq_misses::total        87540                       # number of WriteReq misses
system.cpu.dcache.WriteReq_miss_latency::.cpu.data   4783986784                       # number of WriteReq miss cycles
system.cpu.dcache.WriteReq_miss_latency::total   4783986784                       # number of WriteReq miss cycles
system.cpu.dcache.WriteReq_accesses::.cpu.data      1511670                       # number of WriteReq accesses(hits+misses)
system.cpu.dcache.WriteReq_accesses::total      1511670                       # number of WriteReq accesses(hits+misses)
system.cpu.dcache.WriteReq_miss_rate::.cpu.data     0.057909                       # miss rate for WriteReq accesses
system.cpu.dcache.WriteReq_miss_rate::total     0.057909                       # miss rate for WriteReq accesses
system.cpu.dcache.WriteReq_avg_miss_latency::.cpu.data 54649.152205                       # average WriteReq miss latency
system.cpu.dcache.WriteReq_avg_miss_latency::total 54649.152205                       # average WriteReq miss latency
system.cpu.dcache.WriteReq_mshr_hits::.cpu.data        73750                       # number of WriteReq MSHR hits
system.cpu.dcache.WriteReq_mshr_hits::total        73750                       # number of WriteReq MSHR hits
system.cpu.dcache.WriteReq_mshr_misses::.cpu.data        13790                       # number of WriteReq MSHR misses
system.cpu.dcache.WriteReq_mshr_misses::total        13790                       # number of WriteReq MSHR misses
system.cpu.dcache.WriteReq_mshr_miss_latency::.cpu.data    872071978                       # number of WriteReq MSHR miss cycles
system.cpu.dcache.WriteReq_mshr_miss_latency::total    872071978                       # number of WriteReq MSHR miss cycles
system.cpu.dcache.WriteReq_mshr_miss_rate::.cpu.data     0.009122                       # mshr miss rate for WriteReq accesses
system.cpu.dcache.WriteReq_mshr_miss_rate::total     0.009122                       # mshr miss rate for WriteReq accesses
system.cpu.dcache.WriteReq_avg_mshr_miss_latency::.cpu.data 63239.447281                       # average WriteReq mshr miss latency
system.cpu.dcache.WriteReq_avg_mshr_miss_latency::total 63239.447281                       # average WriteReq mshr miss latency
system.cpu.dcache.SoftPFReq_hits::.cpu.data         6036                       # number of SoftPFReq hits
system.cpu.dcache.SoftPFReq_hits::total          6036                       # number of SoftPFReq hits
system.cpu.dcache.SoftPFReq_misses::.cpu.data            8                       # number of SoftPFReq misses
system.cpu.dcache.SoftPFReq_misses::total            8                       # number of SoftPFReq misses
system.cpu.dcache.SoftPFReq_accesses::.cpu.data         6044                       # number of SoftPFReq accesses(hits+misses)
system.cpu.dcache.SoftPFReq_accesses::total         6044                       # number of SoftPFReq accesses(hits+misses)
system.cpu.dcache.SoftPFReq_miss_rate::.cpu.data     0.001324                       # miss rate for SoftPFReq accesses
system.cpu.dcache.SoftPFReq_miss_rate::total     0.001324                       # miss rate for SoftPFReq accesses
system.cpu.dcache.SoftPFReq_mshr_misses::.cpu.data            7                       # number of SoftPFReq MSHR misses
system.cpu.dcache.SoftPFReq_mshr_misses::total            7                       # number of SoftPFReq MSHR misses
system.cpu.dcache.SoftPFReq_mshr_miss_latency::.cpu.data       334500                       # number of SoftPFReq MSHR miss cycles
system.cpu.dcache.SoftPFReq_mshr_miss_latency::total       334500                       # number of SoftPFReq MSHR miss cycles
system.cpu.dcache.SoftPFReq_mshr_miss_rate::.cpu.data     0.001158                       # mshr miss rate for SoftPFReq accesses
system.cpu.dcache.SoftPFReq_mshr_miss_rate::total     0.001158                       # mshr miss rate for SoftPFReq accesses
system.cpu.dcache.SoftPFReq_avg_mshr_miss_latency::.cpu.data 47785.714286                       # average SoftPFReq mshr miss latency
system.cpu.dcache.SoftPFReq_avg_mshr_miss_latency::total 47785.714286                       # average SoftPFReq mshr miss latency
system.cpu.dcache.WriteLineReq_hits::.cpu.data            3                       # number of WriteLineReq hits
system.cpu.dcache.WriteLineReq_hits::total            3                       # number of WriteLineReq hits
system.cpu.dcache.WriteLineReq_misses::.cpu.data          205                       # number of WriteLineReq misses
system.cpu.dcache.WriteLineReq_misses::total          205                       # number of WriteLineReq misses
system.cpu.dcache.WriteLineReq_miss_latency::.cpu.data      6532885                       # number of WriteLineReq miss cycles
system.cpu.dcache.WriteLineReq_miss_latency::total      6532885                       # number of WriteLineReq miss cycles
system.cpu.dcache.WriteLineReq_accesses::.cpu.data          208                       # number of WriteLineReq accesses(hits+misses)
system.cpu.dcache.WriteLineReq_accesses::total          208                       # number of WriteLineReq accesses(hits+misses)
system.cpu.dcache.WriteLineReq_miss_rate::.cpu.data     0.985577                       # miss rate for WriteLineReq accesses
system.cpu.dcache.WriteLineReq_miss_rate::total     0.985577                       # miss rate for WriteLineReq accesses
system.cpu.dcache.WriteLineReq_avg_miss_latency::.cpu.data 31867.731707                       # average WriteLineReq miss latency
system.cpu.dcache.WriteLineReq_avg_miss_latency::total 31867.731707                       # average WriteLineReq miss latency
system.cpu.dcache.WriteLineReq_mshr_misses::.cpu.data          205                       # number of WriteLineReq MSHR misses
system.cpu.dcache.WriteLineReq_mshr_misses::total          205                       # number of WriteLineReq MSHR misses
system.cpu.dcache.WriteLineReq_mshr_miss_latency::.cpu.data      6327885                       # number of WriteLineReq MSHR miss cycles
system.cpu.dcache.WriteLineReq_mshr_miss_latency::total      6327885                       # number of WriteLineReq MSHR miss cycles
system.cpu.dcache.WriteLineReq_mshr_miss_rate::.cpu.data     0.985577                       # mshr miss rate for WriteLineReq accesses
system.cpu.dcache.WriteLineReq_mshr_miss_rate::total     0.985577                       # mshr miss rate for WriteLineReq accesses
system.cpu.dcache.WriteLineReq_avg_mshr_miss_latency::.cpu.data 30867.731707                       # average WriteLineReq mshr miss latency
system.cpu.dcache.WriteLineReq_avg_mshr_miss_latency::total 30867.731707                       # average WriteLineReq mshr miss latency
system.cpu.dcache.LoadLockedReq_hits::.cpu.data          588                       # number of LoadLockedReq hits
system.cpu.dcache.LoadLockedReq_hits::total          588                       # number of LoadLockedReq hits
system.cpu.dcache.LoadLockedReq_misses::.cpu.data            7                       # number of LoadLockedReq misses
system.cpu.dcache.LoadLockedReq_misses::total            7                       # number of LoadLockedReq misses
system.cpu.dcache.LoadLockedReq_miss_latency::.cpu.data       467000                       # number of LoadLockedReq miss cycles
system.cpu.dcache.LoadLockedReq_miss_latency::total       467000                       # number of LoadLockedReq miss cycles
system.cpu.dcache.LoadLockedReq_accesses::.cpu.data          595                       # number of LoadLockedReq accesses(hits+misses)
system.cpu.dcache.LoadLockedReq_accesses::total          595                       # number of LoadLockedReq accesses(hits+misses)
system.cpu.dcache.LoadLockedReq_miss_rate::.cpu.data     0.011765                       # miss rate for LoadLockedReq accesses
system.cpu.dcache.LoadLockedReq_miss_rate::total     0.011765                       # miss rate for LoadLockedReq accesses
system.cpu.dcache.LoadLockedReq_avg_miss_latency::.cpu.data 66714.285714                       # average LoadLockedReq miss latency
system.cpu.dcache.LoadLockedReq_avg_miss_latency::total 66714.285714                       # average LoadLockedReq miss latency
system.cpu.dcache.LoadLockedReq_mshr_hits::.cpu.data            5                       # number of LoadLockedReq MSHR hits
system.cpu.dcache.LoadLockedReq_mshr_hits::total            5                       # number of LoadLockedReq MSHR hits
system.cpu.dcache.LoadLockedReq_mshr_misses::.cpu.data            2                       # number of LoadLockedReq MSHR misses
system.cpu.dcache.LoadLockedReq_mshr_misses::total            2                       # number of LoadLockedReq MSHR misses
system.cpu.dcache.LoadLockedReq_mshr_miss_latency::.cpu.data       206000                       # number of LoadLockedReq MSHR miss cycles
system.cpu.dcache.LoadLockedReq_mshr_miss_latency::total       206000                       # number of LoadLockedReq MSHR miss cycles
system.cpu.dcache.LoadLockedReq_mshr_miss_rate::.cpu.data     0.003361                       # mshr miss rate for LoadLockedReq accesses
system.cpu.dcache.LoadLockedReq_mshr_miss_rate::total     0.003361                       # mshr miss rate for LoadLockedReq accesses
system.cpu.dcache.LoadLockedReq_avg_mshr_miss_latency::.cpu.data       103000                       # average LoadLockedReq mshr miss latency
system.cpu.dcache.LoadLockedReq_avg_mshr_miss_latency::total       103000                       # average LoadLockedReq mshr miss latency
system.cpu.dcache.StoreCondReq_hits::.cpu.data          550                       # number of StoreCondReq hits
system.cpu.dcache.StoreCondReq_hits::total          550                       # number of StoreCondReq hits
system.cpu.dcache.StoreCondReq_accesses::.cpu.data          550                       # number of StoreCondReq accesses(hits+misses)
system.cpu.dcache.StoreCondReq_accesses::total          550                       # number of StoreCondReq accesses(hits+misses)
system.cpu.dcache.power_state.pwrStateResidencyTicks::UNDEFINED   6027859000                       # Cumulative time (in ticks) in various power states
system.cpu.dcache.tags.tagsinuse          1005.857393                       # Cycle average of tags in use
system.cpu.dcache.tags.total_refs             4265110                       # Total number of references to valid blocks.
system.cpu.dcache.tags.sampled_refs             34791                       # Sample count of references to valid blocks.
system.cpu.dcache.tags.avg_refs            122.592337                       # Average number of references to valid blocks.
system.cpu.dcache.tags.warmup_cycle            176500                       # Cycle when the warmup percentage was hit.
system.cpu.dcache.tags.occ_blocks::.cpu.data  1005.857393                       # Average occupied blocks per requestor
system.cpu.dcache.tags.occ_percent::.cpu.data     0.982283                       # Average percentage of cache occupancy
system.cpu.dcache.tags.occ_percent::total     0.982283                       # Average percentage of cache occupancy
system.cpu.dcache.tags.occ_task_id_blocks::1024         1024                       # Occupied blocks per task id
system.cpu.dcache.tags.age_task_id_blocks_1024::0          196                       # Occupied blocks per task id
system.cpu.dcache.tags.age_task_id_blocks_1024::1          470                       # Occupied blocks per task id
system.cpu.dcache.tags.age_task_id_blocks_1024::2          349                       # Occupied blocks per task id
system.cpu.dcache.tags.age_task_id_blocks_1024::3            9                       # Occupied blocks per task id
system.cpu.dcache.tags.occ_task_id_percent::1024            1                       # Percentage of cache occupancy per task id
system.cpu.dcache.tags.tag_accesses           8789891                       # Number of tag accesses
system.cpu.dcache.tags.data_accesses          8789891                       # Number of data accesses
system.cpu.dcache.tags.power_state.pwrStateResidencyTicks::UNDEFINED   6027859000                       # Cumulative time (in ticks) in various power states
system.cpu.power_state.pwrStateResidencyTicks::ON   6027859000                       # Cumulative time (in ticks) in various power states

---------- End Simulation Statistics   ----------
