
---------- Begin Simulation Statistics ----------
final_tick                                 3113714500                       # Number of ticks from beginning of simulation (restored from checkpoints and never reset)
host_inst_rate                                 153162                       # Simulator instruction rate (inst/s)
host_mem_usage                                 883744                       # Number of bytes of host memory used
host_op_rate                                   172645                       # Simulator op (including micro ops) rate (op/s)
host_seconds                                    65.29                       # Real time elapsed on the host
host_tick_rate                               47690167                       # Simulator tick rate (ticks/s)
sim_freq                                 1000000000000                       # Frequency of simulated ticks
sim_insts                                    10000000                       # Number of instructions simulated
sim_ops                                      11272041                       # Number of ops (including micro ops) simulated
sim_seconds                                  0.003114                       # Number of seconds simulated
sim_ticks                                  3113714500                       # Number of ticks simulated
system.cpu.branchPred.BTBCorrect                    0                       # Number of correct BTB predictions (this stat may not work properly.
system.cpu.branchPred.BTBHitPct             99.659355                       # BTB Hit Percentage
system.cpu.branchPred.BTBHits                 1249233                       # Number of BTB hits
system.cpu.branchPred.BTBLookups              1253503                       # Number of BTB lookups
system.cpu.branchPred.RASInCorrect                 20                       # Number of incorrect RAS predictions.
system.cpu.branchPred.condIncorrect             19586                       # Number of conditional branches incorrect
system.cpu.branchPred.condPredicted           1890324                       # Number of conditional branches predicted
system.cpu.branchPred.indirectHits              99633                       # Number of indirect target hits.
system.cpu.branchPred.indirectLookups          100711                       # Number of indirect predictor lookups.
system.cpu.branchPred.indirectMisses             1078                       # Number of indirect misses.
system.cpu.branchPred.lookups                 2917696                       # Number of BP lookups
system.cpu.branchPred.usedRAS                  382906                       # Number of times the RAS was used to get a target.
system.cpu.branchPredindirectMispredicted          528                       # Number of mispredicted indirect branches.
system.cpu.cc_regfile_reads                   5063127                       # number of cc regfile reads
system.cpu.cc_regfile_writes                  3961335                       # number of cc regfile writes
system.cpu.commit.amos                              0                       # Number of atomic instructions committed
system.cpu.commit.branchMispredicts             17903                       # The number of times a branch was mispredicted
system.cpu.commit.branches                    2769411                       # Number of branches committed
system.cpu.commit.bw_lim_events                458050                       # number cycles where commit BW limit reached
system.cpu.commit.commitNonSpecStalls             540                       # The number of times commit has been forced to stall to communicate backwards
system.cpu.commit.commitSquashedInsts          599890                       # The number of squashed insts skipped by commit
system.cpu.commit.committedInsts             10003358                       # Number of instructions committed
system.cpu.commit.committedOps               11275399                       # Number of ops (including micro ops) committed
system.cpu.commit.committed_per_cycle::samples      6035504                       # Number of insts commited each cycle
system.cpu.commit.committed_per_cycle::mean     1.868179                       # Number of insts commited each cycle
system.cpu.commit.committed_per_cycle::stdev     2.414441                       # Number of insts commited each cycle
system.cpu.commit.committed_per_cycle::underflows            0      0.00%      0.00% # Number of insts commited each cycle
system.cpu.commit.committed_per_cycle::0      2580228     42.75%     42.75% # Number of insts commited each cycle
system.cpu.commit.committed_per_cycle::1      1014897     16.82%     59.57% # Number of insts commited each cycle
system.cpu.commit.committed_per_cycle::2       823102     13.64%     73.20% # Number of insts commited each cycle
system.cpu.commit.committed_per_cycle::3       332651      5.51%     78.72% # Number of insts commited each cycle
system.cpu.commit.committed_per_cycle::4       427999      7.09%     85.81% # Number of insts commited each cycle
system.cpu.commit.committed_per_cycle::5       202559      3.36%     89.16% # Number of insts commited each cycle
system.cpu.commit.committed_per_cycle::6       144972      2.40%     91.56% # Number of insts commited each cycle
system.cpu.commit.committed_per_cycle::7        51046      0.85%     92.41% # Number of insts commited each cycle
system.cpu.commit.committed_per_cycle::8       458050      7.59%    100.00% # Number of insts commited each cycle
system.cpu.commit.committed_per_cycle::overflows            0      0.00%    100.00% # Number of insts commited each cycle
system.cpu.commit.committed_per_cycle::min_value            0                       # Number of insts commited each cycle
system.cpu.commit.committed_per_cycle::max_value            8                       # Number of insts commited each cycle
system.cpu.commit.committed_per_cycle::total      6035504                       # Number of insts commited each cycle
system.cpu.commit.fp_insts                          0                       # Number of committed floating point instructions.
system.cpu.commit.function_calls               374505                       # Number of function calls committed.
system.cpu.commit.int_insts                   9770223                       # Number of committed integer instructions.
system.cpu.commit.loads                       1155697                       # Number of loads committed
system.cpu.commit.membars                         532                       # Number of memory barriers committed
system.cpu.commit.op_class_0::No_OpClass           12      0.00%      0.00% # Class of committed instruction
system.cpu.commit.op_class_0::IntAlu          9136842     81.03%     81.03% # Class of committed instruction
system.cpu.commit.op_class_0::IntMult           40054      0.36%     81.39% # Class of committed instruction
system.cpu.commit.op_class_0::IntDiv               22      0.00%     81.39% # Class of committed instruction
system.cpu.commit.op_class_0::FloatAdd              0      0.00%     81.39% # Class of committed instruction
system.cpu.commit.op_class_0::FloatCmp              0      0.00%     81.39% # Class of committed instruction
system.cpu.commit.op_class_0::FloatCvt              0      0.00%     81.39% # Class of committed instruction
system.cpu.commit.op_class_0::FloatMult             0      0.00%     81.39% # Class of committed instruction
system.cpu.commit.op_class_0::FloatMultAcc            0      0.00%     81.39% # Class of committed instruction
system.cpu.commit.op_class_0::FloatDiv              0      0.00%     81.39% # Class of committed instruction
system.cpu.commit.op_class_0::FloatMisc             1      0.00%     81.39% # Class of committed instruction
system.cpu.commit.op_class_0::FloatSqrt             0      0.00%     81.39% # Class of committed instruction
system.cpu.commit.op_class_0::SimdAdd              38      0.00%     81.39% # Class of committed instruction
system.cpu.commit.op_class_0::SimdAddAcc            0      0.00%     81.39% # Class of committed instruction
system.cpu.commit.op_class_0::SimdAlu              47      0.00%     81.39% # Class of committed instruction
system.cpu.commit.op_class_0::SimdCmp              49      0.00%     81.39% # Class of committed instruction
system.cpu.commit.op_class_0::SimdCvt               0      0.00%     81.39% # Class of committed instruction
system.cpu.commit.op_class_0::SimdMisc             47      0.00%     81.39% # Class of committed instruction
system.cpu.commit.op_class_0::SimdMult              0      0.00%     81.39% # Class of committed instruction
system.cpu.commit.op_class_0::SimdMultAcc            0      0.00%     81.39% # Class of committed instruction
system.cpu.commit.op_class_0::SimdShift             0      0.00%     81.39% # Class of committed instruction
system.cpu.commit.op_class_0::SimdShiftAcc            0      0.00%     81.39% # Class of committed instruction
system.cpu.commit.op_class_0::SimdDiv               0      0.00%     81.39% # Class of committed instruction
system.cpu.commit.op_class_0::SimdSqrt              0      0.00%     81.39% # Class of committed instruction
system.cpu.commit.op_class_0::SimdFloatAdd            0      0.00%     81.39% # Class of committed instruction
system.cpu.commit.op_class_0::SimdFloatAlu            0      0.00%     81.39% # Class of committed instruction
system.cpu.commit.op_class_0::SimdFloatCmp            0      0.00%     81.39% # Class of committed instruction
system.cpu.commit.op_class_0::SimdFloatCvt            0      0.00%     81.39% # Class of committed instruction
system.cpu.commit.op_class_0::SimdFloatDiv            0      0.00%     81.39% # Class of committed instruction
system.cpu.commit.op_class_0::SimdFloatMisc            0      0.00%     81.39% # Class of committed instruction
system.cpu.commit.op_class_0::SimdFloatMult            0      0.00%     81.39% # Class of committed instruction
system.cpu.commit.op_class_0::SimdFloatMultAcc            0      0.00%     81.39% # Class of committed instruction
system.cpu.commit.op_class_0::SimdFloatSqrt            0      0.00%     81.39% # Class of committed instruction
system.cpu.commit.op_class_0::SimdReduceAdd            0      0.00%     81.39% # Class of committed instruction
system.cpu.commit.op_class_0::SimdReduceAlu            0      0.00%     81.39% # Class of committed instruction
system.cpu.commit.op_class_0::SimdReduceCmp            0      0.00%     81.39% # Class of committed instruction
system.cpu.commit.op_class_0::SimdFloatReduceAdd            0      0.00%     81.39% # Class of committed instruction
system.cpu.commit.op_class_0::SimdFloatReduceCmp            0      0.00%     81.39% # Class of committed instruction
system.cpu.commit.op_class_0::SimdAes               0      0.00%     81.39% # Class of committed instruction
system.cpu.commit.op_class_0::SimdAesMix            0      0.00%     81.39% # Class of committed instruction
system.cpu.commit.op_class_0::SimdSha1Hash            0      0.00%     81.39% # Class of committed instruction
system.cpu.commit.op_class_0::SimdSha1Hash2            0      0.00%     81.39% # Class of committed instruction
system.cpu.commit.op_class_0::SimdSha256Hash            0      0.00%     81.39% # Class of committed instruction
system.cpu.commit.op_class_0::SimdSha256Hash2            0      0.00%     81.39% # Class of committed instruction
system.cpu.commit.op_class_0::SimdShaSigma2            0      0.00%     81.39% # Class of committed instruction
system.cpu.commit.op_class_0::SimdShaSigma3            0      0.00%     81.39% # Class of committed instruction
system.cpu.commit.op_class_0::SimdPredAlu            0      0.00%     81.39% # Class of committed instruction
system.cpu.commit.op_class_0::MemRead         1155697     10.25%     91.64% # Class of committed instruction
system.cpu.commit.op_class_0::MemWrite         942590      8.36%    100.00% # Class of committed instruction
system.cpu.commit.op_class_0::FloatMemRead            0      0.00%    100.00% # Class of committed instruction
system.cpu.commit.op_class_0::FloatMemWrite            0      0.00%    100.00% # Class of committed instruction
system.cpu.commit.op_class_0::IprAccess             0      0.00%    100.00% # Class of committed instruction
system.cpu.commit.op_class_0::InstPrefetch            0      0.00%    100.00% # Class of committed instruction
system.cpu.commit.op_class_0::total          11275399                       # Class of committed instruction
system.cpu.commit.refs                        2098287                       # Number of memory references committed
system.cpu.commit.swp_count                         0                       # Number of s/w prefetches committed
system.cpu.commit.vec_insts                       699                       # Number of committed Vector instructions.
system.cpu.committedInsts                    10000000                       # Number of Instructions Simulated
system.cpu.committedOps                      11272041                       # Number of Ops (including micro ops) Simulated
system.cpu.cpi                               0.622743                       # CPI: Cycles Per Instruction
system.cpu.cpi_total                         0.622743                       # CPI: Total CPI of All Threads
system.cpu.decode.BlockedCycles                697144                       # Number of cycles decode is blocked
system.cpu.decode.BranchMispred                  1704                       # Number of times decode detected a branch misprediction
system.cpu.decode.BranchResolved              1238197                       # Number of times decode resolved a branch
system.cpu.decode.DecodedInsts               12007909                       # Number of instructions handled by decode
system.cpu.decode.IdleCycles                  2436190                       # Number of cycles decode is idle
system.cpu.decode.RunCycles                   2913056                       # Number of cycles decode is running
system.cpu.decode.SquashCycles                  17992                       # Number of cycles decode is squashing
system.cpu.decode.SquashedInsts                  7436                       # Number of squashed instructions handled by decode
system.cpu.decode.UnblockCycles                 53879                       # Number of cycles decode is unblocking
system.cpu.dtb.accesses                             0                       # DTB accesses
system.cpu.dtb.align_faults                         0                       # Number of TLB faults due to alignment restrictions
system.cpu.dtb.domain_faults                        0                       # Number of TLB faults due to domain restrictions
system.cpu.dtb.flush_entries                        0                       # Number of entries that have been flushed from TLB
system.cpu.dtb.flush_tlb                            0                       # Number of times complete TLB was flushed
system.cpu.dtb.flush_tlb_asid                       0                       # Number of times TLB was flushed by ASID
system.cpu.dtb.flush_tlb_mva                        0                       # Number of times TLB was flushed by MVA
system.cpu.dtb.flush_tlb_mva_asid                   0                       # Number of times TLB was flushed by MVA & ASID
system.cpu.dtb.hits                                 0                       # DTB hits
system.cpu.dtb.inst_accesses                        0                       # ITB inst accesses
system.cpu.dtb.inst_hits                            0                       # ITB inst hits
system.cpu.dtb.inst_misses                          0                       # ITB inst misses
system.cpu.dtb.misses                               0                       # DTB misses
system.cpu.dtb.perms_faults                         0                       # Number of TLB faults due to permissions restrictions
system.cpu.dtb.prefetch_faults                      0                       # Number of TLB faults due to prefetch
system.cpu.dtb.read_accesses                        0                       # DTB read accesses
system.cpu.dtb.read_hits                            0                       # DTB read hits
system.cpu.dtb.read_misses                          0                       # DTB read misses
system.cpu.dtb.stage2_mmu.stage2_tlb.accesses            0                       # DTB accesses
system.cpu.dtb.stage2_mmu.stage2_tlb.align_faults            0                       # Number of TLB faults due to alignment restrictions
system.cpu.dtb.stage2_mmu.stage2_tlb.domain_faults            0                       # Number of TLB faults due to domain restrictions
system.cpu.dtb.stage2_mmu.stage2_tlb.flush_entries            0                       # Number of entries that have been flushed from TLB
system.cpu.dtb.stage2_mmu.stage2_tlb.flush_tlb            0                       # Number of times complete TLB was flushed
system.cpu.dtb.stage2_mmu.stage2_tlb.flush_tlb_asid            0                       # Number of times TLB was flushed by ASID
system.cpu.dtb.stage2_mmu.stage2_tlb.flush_tlb_mva            0                       # Number of times TLB was flushed by MVA
system.cpu.dtb.stage2_mmu.stage2_tlb.flush_tlb_mva_asid            0                       # Number of times TLB was flushed by MVA & ASID
system.cpu.dtb.stage2_mmu.stage2_tlb.hits            0                       # DTB hits
system.cpu.dtb.stage2_mmu.stage2_tlb.inst_accesses            0                       # ITB inst accesses
system.cpu.dtb.stage2_mmu.stage2_tlb.inst_hits            0                       # ITB inst hits
system.cpu.dtb.stage2_mmu.stage2_tlb.inst_misses            0                       # ITB inst misses
system.cpu.dtb.stage2_mmu.stage2_tlb.misses            0                       # DTB misses
system.cpu.dtb.stage2_mmu.stage2_tlb.perms_faults            0                       # Number of TLB faults due to permissions restrictions
system.cpu.dtb.stage2_mmu.stage2_tlb.prefetch_faults            0                       # Number of TLB faults due to prefetch
system.cpu.dtb.stage2_mmu.stage2_tlb.read_accesses            0                       # DTB read accesses
system.cpu.dtb.stage2_mmu.stage2_tlb.read_hits            0                       # DTB read hits
system.cpu.dtb.stage2_mmu.stage2_tlb.read_misses            0                       # DTB read misses
system.cpu.dtb.stage2_mmu.stage2_tlb.walker.walkRequestOrigin_Requested::Data            0                       # Table walker requests started/completed, data/inst
system.cpu.dtb.stage2_mmu.stage2_tlb.walker.walkRequestOrigin_Requested::Inst            0                       # Table walker requests started/completed, data/inst
system.cpu.dtb.stage2_mmu.stage2_tlb.walker.walkRequestOrigin_Requested::total            0                       # Table walker requests started/completed, data/inst
system.cpu.dtb.stage2_mmu.stage2_tlb.walker.walkRequestOrigin_Completed::Data            0                       # Table walker requests started/completed, data/inst
system.cpu.dtb.stage2_mmu.stage2_tlb.walker.walkRequestOrigin_Completed::Inst            0                       # Table walker requests started/completed, data/inst
system.cpu.dtb.stage2_mmu.stage2_tlb.walker.walkRequestOrigin_Completed::total            0                       # Table walker requests started/completed, data/inst
system.cpu.dtb.stage2_mmu.stage2_tlb.walker.walkRequestOrigin::total            0                       # Table walker requests started/completed, data/inst
system.cpu.dtb.stage2_mmu.stage2_tlb.walker.walks            0                       # Table walker walks requested
system.cpu.dtb.stage2_mmu.stage2_tlb.write_accesses            0                       # DTB write accesses
system.cpu.dtb.stage2_mmu.stage2_tlb.write_hits            0                       # DTB write hits
system.cpu.dtb.stage2_mmu.stage2_tlb.write_misses            0                       # DTB write misses
system.cpu.dtb.walker.walkRequestOrigin_Requested::Data            0                       # Table walker requests started/completed, data/inst
system.cpu.dtb.walker.walkRequestOrigin_Requested::Inst            0                       # Table walker requests started/completed, data/inst
system.cpu.dtb.walker.walkRequestOrigin_Requested::total            0                       # Table walker requests started/completed, data/inst
system.cpu.dtb.walker.walkRequestOrigin_Completed::Data            0                       # Table walker requests started/completed, data/inst
system.cpu.dtb.walker.walkRequestOrigin_Completed::Inst            0                       # Table walker requests started/completed, data/inst
system.cpu.dtb.walker.walkRequestOrigin_Completed::total            0                       # Table walker requests started/completed, data/inst
system.cpu.dtb.walker.walkRequestOrigin::total            0                       # Table walker requests started/completed, data/inst
system.cpu.dtb.walker.walks                         0                       # Table walker walks requested
system.cpu.dtb.write_accesses                       0                       # DTB write accesses
system.cpu.dtb.write_hits                           0                       # DTB write hits
system.cpu.dtb.write_misses                         0                       # DTB write misses
system.cpu.fetch.Branches                     2917696                       # Number of branches that fetch encountered
system.cpu.fetch.CacheLines                   2496809                       # Number of cache lines fetched
system.cpu.fetch.Cycles                       3544362                       # Number of cycles fetch has run and was not squashing or blocked
system.cpu.fetch.IcacheSquashes                  5783                       # Number of outstanding Icache misses that were squashed
system.cpu.fetch.IcacheWaitRetryStallCycles           32                       # Number of stall cycles due to full MSHR
system.cpu.fetch.Insts                       10694385                       # Number of instructions fetch has processed
system.cpu.fetch.MiscStallCycles                  116                       # Number of cycles fetch has spent waiting on interrupts, or bad addresses, or out of MSHRs
system.cpu.fetch.SquashCycles                   39350                       # Number of cycles fetch has spent squashing
system.cpu.fetch.branchRate                  0.468523                       # Number of branch fetches per cycle
system.cpu.fetch.icacheStallCycles            2554076                       # Number of cycles fetch is stalled on an Icache miss
system.cpu.fetch.predictedBranches            1731772                       # Number of branches that fetch has predicted taken
system.cpu.fetch.rate                        1.717303                       # Number of inst fetches per cycle
system.cpu.fetch.rateDist::samples            6118261                       # Number of instructions fetched each cycle (Total)
system.cpu.fetch.rateDist::mean              1.975837                       # Number of instructions fetched each cycle (Total)
system.cpu.fetch.rateDist::stdev             2.613839                       # Number of instructions fetched each cycle (Total)
system.cpu.fetch.rateDist::underflows               0      0.00%      0.00% # Number of instructions fetched each cycle (Total)
system.cpu.fetch.rateDist::0                  3071326     50.20%     50.20% # Number of instructions fetched each cycle (Total)
system.cpu.fetch.rateDist::1                   356845      5.83%     56.03% # Number of instructions fetched each cycle (Total)
system.cpu.fetch.rateDist::2                   843114     13.78%     69.81% # Number of instructions fetched each cycle (Total)
system.cpu.fetch.rateDist::3                   479427      7.84%     77.65% # Number of instructions fetched each cycle (Total)
system.cpu.fetch.rateDist::4                   326420      5.34%     82.98% # Number of instructions fetched each cycle (Total)
system.cpu.fetch.rateDist::5                   132987      2.17%     85.16% # Number of instructions fetched each cycle (Total)
system.cpu.fetch.rateDist::6                   199921      3.27%     88.42% # Number of instructions fetched each cycle (Total)
system.cpu.fetch.rateDist::7                   228578      3.74%     92.16% # Number of instructions fetched each cycle (Total)
system.cpu.fetch.rateDist::8                   479643      7.84%    100.00% # Number of instructions fetched each cycle (Total)
system.cpu.fetch.rateDist::overflows                0      0.00%    100.00% # Number of instructions fetched each cycle (Total)
system.cpu.fetch.rateDist::min_value                0                       # Number of instructions fetched each cycle (Total)
system.cpu.fetch.rateDist::max_value                8                       # Number of instructions fetched each cycle (Total)
system.cpu.fetch.rateDist::total              6118261                       # Number of instructions fetched each cycle (Total)
system.cpu.icache.prefetcher.num_hwpf_issued         5294                       # number of hwpf issued
system.cpu.icache.prefetcher.pfBufferHit          935                       # number of redundant prefetches already in prefetch queue
system.cpu.icache.prefetcher.pfIdentified         6681                       # number of prefetch candidates identified
system.cpu.icache.prefetcher.pfInCache              0                       # number of redundant prefetches already in cache/mshr dropped
system.cpu.icache.prefetcher.pfRemovedFull          275                       # number of prefetches dropped due to prefetch queue size
system.cpu.icache.prefetcher.pfSpanPage        120467                       # number of prefetches that crossed the page
system.cpu.idleCycles                          109169                       # Total number of cycles that the CPU has spent unscheduled due to idling
system.cpu.iew.branchMispredicts                20014                       # Number of branch mispredicts detected at execute
system.cpu.iew.exec_branches                  2843375                       # Number of branches executed
system.cpu.iew.exec_nop                          4056                       # number of nop insts executed
system.cpu.iew.exec_rate                     1.905646                       # Inst execution rate
system.cpu.iew.exec_refs                      2310458                       # number of memory reference insts executed
system.cpu.iew.exec_stores                    1012304                       # Number of stores executed
system.cpu.iew.exec_swp                             0                       # number of swp insts executed
system.cpu.iew.iewBlockCycles                  302720                       # Number of cycles IEW is blocking
system.cpu.iew.iewDispLoadInsts               1218075                       # Number of dispatched load instructions
system.cpu.iew.iewDispNonSpecInsts                591                       # Number of dispatched non-speculative instructions
system.cpu.iew.iewDispSquashedInsts               613                       # Number of squashed instructions skipped by dispatch
system.cpu.iew.iewDispStoreInsts              1029111                       # Number of dispatched store instructions
system.cpu.iew.iewDispatchedInsts            11876155                       # Number of instructions dispatched to IQ
system.cpu.iew.iewExecLoadInsts               1298154                       # Number of load instructions executed
system.cpu.iew.iewExecSquashedInsts             24721                       # Number of squashed instructions skipped in execute
system.cpu.iew.iewExecutedInsts              11867276                       # Number of executed instructions
system.cpu.iew.iewIQFullEvents                   1415                       # Number of times the IQ has become full, causing a stall
system.cpu.iew.iewIdleCycles                        0                       # Number of cycles IEW is idle
system.cpu.iew.iewLSQFullEvents                  1249                       # Number of times the LSQ has become full, causing a stall
system.cpu.iew.iewSquashCycles                  17992                       # Number of cycles IEW is squashing
system.cpu.iew.iewUnblockCycles                  5608                       # Number of cycles IEW is unblocking
system.cpu.iew.lsq.thread0.blockedLoads             0                       # Number of blocked loads due to partial load-store forwarding
system.cpu.iew.lsq.thread0.cacheBlocked           227                       # Number of times an access to memory failed due to the cache being blocked
system.cpu.iew.lsq.thread0.forwLoads            10066                       # Number of loads that had data forwarded from stores
system.cpu.iew.lsq.thread0.ignoredResponses           10                       # Number of memory responses ignored because the instruction is squashed
system.cpu.iew.lsq.thread0.invAddrLoads             0                       # Number of loads ignored due to an invalid address
system.cpu.iew.lsq.thread0.invAddrSwpfs             0                       # Number of software prefetches ignored due to an invalid address
system.cpu.iew.lsq.thread0.memOrderViolation           51                       # Number of memory ordering violations
system.cpu.iew.lsq.thread0.rescheduledLoads        86501                       # Number of loads that were rescheduled
system.cpu.iew.lsq.thread0.squashedLoads        62377                       # Number of loads squashed
system.cpu.iew.lsq.thread0.squashedStores        86521                       # Number of stores squashed
system.cpu.iew.memOrderViolationEvents             51                       # Number of memory order violations
system.cpu.iew.predictedNotTakenIncorrect        14228                       # Number of branches that were predicted not taken incorrectly
system.cpu.iew.predictedTakenIncorrect           5786                       # Number of branches that were predicted taken incorrectly
system.cpu.iew.wb_consumers                  10946337                       # num instructions consuming a value
system.cpu.iew.wb_count                      11766038                       # cumulative count of insts written-back
system.cpu.iew.wb_fanout                     0.504308                       # average fanout of values written-back
system.cpu.iew.wb_producers                   5520323                       # num instructions producing a value
system.cpu.iew.wb_rate                       1.889389                       # insts written-back per cycle
system.cpu.iew.wb_sent                       11771883                       # cumulative count of insts sent to commit
system.cpu.int_regfile_reads                 13409389                       # number of integer regfile reads
system.cpu.int_regfile_writes                 8701370                       # number of integer regfile writes
system.cpu.ipc                               1.605799                       # IPC: Instructions Per Cycle
system.cpu.ipc_total                         1.605799                       # IPC: Total IPC of All Threads
system.cpu.iq.FU_type_0::No_OpClass                15      0.00%      0.00% # Type of FU issued
system.cpu.iq.FU_type_0::IntAlu               9536153     80.19%     80.19% # Type of FU issued
system.cpu.iq.FU_type_0::IntMult                40058      0.34%     80.53% # Type of FU issued
system.cpu.iq.FU_type_0::IntDiv                    26      0.00%     80.53% # Type of FU issued
system.cpu.iq.FU_type_0::FloatAdd                   0      0.00%     80.53% # Type of FU issued
system.cpu.iq.FU_type_0::FloatCmp                   0      0.00%     80.53% # Type of FU issued
system.cpu.iq.FU_type_0::FloatCvt                   0      0.00%     80.53% # Type of FU issued
system.cpu.iq.FU_type_0::FloatMult                  0      0.00%     80.53% # Type of FU issued
system.cpu.iq.FU_type_0::FloatMultAcc               0      0.00%     80.53% # Type of FU issued
system.cpu.iq.FU_type_0::FloatDiv                   0      0.00%     80.53% # Type of FU issued
system.cpu.iq.FU_type_0::FloatMisc                  1      0.00%     80.53% # Type of FU issued
system.cpu.iq.FU_type_0::FloatSqrt                  0      0.00%     80.53% # Type of FU issued
system.cpu.iq.FU_type_0::SimdAdd                   49      0.00%     80.53% # Type of FU issued
system.cpu.iq.FU_type_0::SimdAddAcc                 0      0.00%     80.53% # Type of FU issued
system.cpu.iq.FU_type_0::SimdAlu                   61      0.00%     80.53% # Type of FU issued
system.cpu.iq.FU_type_0::SimdCmp                   61      0.00%     80.53% # Type of FU issued
system.cpu.iq.FU_type_0::SimdCvt                    0      0.00%     80.53% # Type of FU issued
system.cpu.iq.FU_type_0::SimdMisc                  52      0.00%     80.53% # Type of FU issued
system.cpu.iq.FU_type_0::SimdMult                   0      0.00%     80.53% # Type of FU issued
system.cpu.iq.FU_type_0::SimdMultAcc                0      0.00%     80.53% # Type of FU issued
system.cpu.iq.FU_type_0::SimdShift                  0      0.00%     80.53% # Type of FU issued
system.cpu.iq.FU_type_0::SimdShiftAcc               0      0.00%     80.53% # Type of FU issued
system.cpu.iq.FU_type_0::SimdDiv                    0      0.00%     80.53% # Type of FU issued
system.cpu.iq.FU_type_0::SimdSqrt                   0      0.00%     80.53% # Type of FU issued
system.cpu.iq.FU_type_0::SimdFloatAdd               0      0.00%     80.53% # Type of FU issued
system.cpu.iq.FU_type_0::SimdFloatAlu               0      0.00%     80.53% # Type of FU issued
system.cpu.iq.FU_type_0::SimdFloatCmp               0      0.00%     80.53% # Type of FU issued
system.cpu.iq.FU_type_0::SimdFloatCvt               0      0.00%     80.53% # Type of FU issued
system.cpu.iq.FU_type_0::SimdFloatDiv               0      0.00%     80.53% # Type of FU issued
system.cpu.iq.FU_type_0::SimdFloatMisc              0      0.00%     80.53% # Type of FU issued
system.cpu.iq.FU_type_0::SimdFloatMult              0      0.00%     80.53% # Type of FU issued
system.cpu.iq.FU_type_0::SimdFloatMultAcc            0      0.00%     80.53% # Type of FU issued
system.cpu.iq.FU_type_0::SimdFloatSqrt              0      0.00%     80.53% # Type of FU issued
system.cpu.iq.FU_type_0::SimdReduceAdd              0      0.00%     80.53% # Type of FU issued
system.cpu.iq.FU_type_0::SimdReduceAlu              0      0.00%     80.53% # Type of FU issued
system.cpu.iq.FU_type_0::SimdReduceCmp              0      0.00%     80.53% # Type of FU issued
system.cpu.iq.FU_type_0::SimdFloatReduceAdd            0      0.00%     80.53% # Type of FU issued
system.cpu.iq.FU_type_0::SimdFloatReduceCmp            0      0.00%     80.53% # Type of FU issued
system.cpu.iq.FU_type_0::SimdAes                    0      0.00%     80.53% # Type of FU issued
system.cpu.iq.FU_type_0::SimdAesMix                 0      0.00%     80.53% # Type of FU issued
system.cpu.iq.FU_type_0::SimdSha1Hash               0      0.00%     80.53% # Type of FU issued
system.cpu.iq.FU_type_0::SimdSha1Hash2              0      0.00%     80.53% # Type of FU issued
system.cpu.iq.FU_type_0::SimdSha256Hash             0      0.00%     80.53% # Type of FU issued
system.cpu.iq.FU_type_0::SimdSha256Hash2            0      0.00%     80.53% # Type of FU issued
system.cpu.iq.FU_type_0::SimdShaSigma2              0      0.00%     80.53% # Type of FU issued
system.cpu.iq.FU_type_0::SimdShaSigma3              0      0.00%     80.53% # Type of FU issued
system.cpu.iq.FU_type_0::SimdPredAlu                0      0.00%     80.53% # Type of FU issued
system.cpu.iq.FU_type_0::MemRead              1299786     10.93%     91.46% # Type of FU issued
system.cpu.iq.FU_type_0::MemWrite             1015738      8.54%    100.00% # Type of FU issued
system.cpu.iq.FU_type_0::FloatMemRead               0      0.00%    100.00% # Type of FU issued
system.cpu.iq.FU_type_0::FloatMemWrite              0      0.00%    100.00% # Type of FU issued
system.cpu.iq.FU_type_0::IprAccess                  0      0.00%    100.00% # Type of FU issued
system.cpu.iq.FU_type_0::InstPrefetch               0      0.00%    100.00% # Type of FU issued
system.cpu.iq.FU_type_0::total               11892000                       # Type of FU issued
system.cpu.iq.fp_alu_accesses                       0                       # Number of floating point alu accesses
system.cpu.iq.fp_inst_queue_reads                   0                       # Number of floating instruction queue reads
system.cpu.iq.fp_inst_queue_wakeup_accesses            0                       # Number of floating instruction queue wakeup accesses
system.cpu.iq.fp_inst_queue_writes                  0                       # Number of floating instruction queue writes
system.cpu.iq.fu_busy_cnt                       40199                       # FU busy when requested
system.cpu.iq.fu_busy_rate                   0.003380                       # FU busy rate (busy events/executed inst)
system.cpu.iq.fu_full::No_OpClass                   0      0.00%      0.00% # attempts to use FU when none available
system.cpu.iq.fu_full::IntAlu                   30154     75.01%     75.01% # attempts to use FU when none available
system.cpu.iq.fu_full::IntMult                      0      0.00%     75.01% # attempts to use FU when none available
system.cpu.iq.fu_full::IntDiv                       0      0.00%     75.01% # attempts to use FU when none available
system.cpu.iq.fu_full::FloatAdd                     0      0.00%     75.01% # attempts to use FU when none available
system.cpu.iq.fu_full::FloatCmp                     0      0.00%     75.01% # attempts to use FU when none available
system.cpu.iq.fu_full::FloatCvt                     0      0.00%     75.01% # attempts to use FU when none available
system.cpu.iq.fu_full::FloatMult                    0      0.00%     75.01% # attempts to use FU when none available
system.cpu.iq.fu_full::FloatMultAcc                 0      0.00%     75.01% # attempts to use FU when none available
system.cpu.iq.fu_full::FloatDiv                     0      0.00%     75.01% # attempts to use FU when none available
system.cpu.iq.fu_full::FloatMisc                    0      0.00%     75.01% # attempts to use FU when none available
system.cpu.iq.fu_full::FloatSqrt                    0      0.00%     75.01% # attempts to use FU when none available
system.cpu.iq.fu_full::SimdAdd                      0      0.00%     75.01% # attempts to use FU when none available
system.cpu.iq.fu_full::SimdAddAcc                   0      0.00%     75.01% # attempts to use FU when none available
system.cpu.iq.fu_full::SimdAlu                      2      0.00%     75.02% # attempts to use FU when none available
system.cpu.iq.fu_full::SimdCmp                      4      0.01%     75.03% # attempts to use FU when none available
system.cpu.iq.fu_full::SimdCvt                      0      0.00%     75.03% # attempts to use FU when none available
system.cpu.iq.fu_full::SimdMisc                     0      0.00%     75.03% # attempts to use FU when none available
system.cpu.iq.fu_full::SimdMult                     0      0.00%     75.03% # attempts to use FU when none available
system.cpu.iq.fu_full::SimdMultAcc                  0      0.00%     75.03% # attempts to use FU when none available
system.cpu.iq.fu_full::SimdShift                    0      0.00%     75.03% # attempts to use FU when none available
system.cpu.iq.fu_full::SimdShiftAcc                 0      0.00%     75.03% # attempts to use FU when none available
system.cpu.iq.fu_full::SimdDiv                      0      0.00%     75.03% # attempts to use FU when none available
system.cpu.iq.fu_full::SimdSqrt                     0      0.00%     75.03% # attempts to use FU when none available
system.cpu.iq.fu_full::SimdFloatAdd                 0      0.00%     75.03% # attempts to use FU when none available
system.cpu.iq.fu_full::SimdFloatAlu                 0      0.00%     75.03% # attempts to use FU when none available
system.cpu.iq.fu_full::SimdFloatCmp                 0      0.00%     75.03% # attempts to use FU when none available
system.cpu.iq.fu_full::SimdFloatCvt                 0      0.00%     75.03% # attempts to use FU when none available
system.cpu.iq.fu_full::SimdFloatDiv                 0      0.00%     75.03% # attempts to use FU when none available
system.cpu.iq.fu_full::SimdFloatMisc                0      0.00%     75.03% # attempts to use FU when none available
system.cpu.iq.fu_full::SimdFloatMult                0      0.00%     75.03% # attempts to use FU when none available
system.cpu.iq.fu_full::SimdFloatMultAcc             0      0.00%     75.03% # attempts to use FU when none available
system.cpu.iq.fu_full::SimdFloatSqrt                0      0.00%     75.03% # attempts to use FU when none available
system.cpu.iq.fu_full::SimdReduceAdd                0      0.00%     75.03% # attempts to use FU when none available
system.cpu.iq.fu_full::SimdReduceAlu                0      0.00%     75.03% # attempts to use FU when none available
system.cpu.iq.fu_full::SimdReduceCmp                0      0.00%     75.03% # attempts to use FU when none available
system.cpu.iq.fu_full::SimdFloatReduceAdd            0      0.00%     75.03% # attempts to use FU when none available
system.cpu.iq.fu_full::SimdFloatReduceCmp            0      0.00%     75.03% # attempts to use FU when none available
system.cpu.iq.fu_full::SimdAes                      0      0.00%     75.03% # attempts to use FU when none available
system.cpu.iq.fu_full::SimdAesMix                   0      0.00%     75.03% # attempts to use FU when none available
system.cpu.iq.fu_full::SimdSha1Hash                 0      0.00%     75.03% # attempts to use FU when none available
system.cpu.iq.fu_full::SimdSha1Hash2                0      0.00%     75.03% # attempts to use FU when none available
system.cpu.iq.fu_full::SimdSha256Hash               0      0.00%     75.03% # attempts to use FU when none available
system.cpu.iq.fu_full::SimdSha256Hash2              0      0.00%     75.03% # attempts to use FU when none available
system.cpu.iq.fu_full::SimdShaSigma2                0      0.00%     75.03% # attempts to use FU when none available
system.cpu.iq.fu_full::SimdShaSigma3                0      0.00%     75.03% # attempts to use FU when none available
system.cpu.iq.fu_full::SimdPredAlu                  0      0.00%     75.03% # attempts to use FU when none available
system.cpu.iq.fu_full::MemRead                   1575      3.92%     78.94% # attempts to use FU when none available
system.cpu.iq.fu_full::MemWrite                  8464     21.06%    100.00% # attempts to use FU when none available
system.cpu.iq.fu_full::FloatMemRead                 0      0.00%    100.00% # attempts to use FU when none available
system.cpu.iq.fu_full::FloatMemWrite                0      0.00%    100.00% # attempts to use FU when none available
system.cpu.iq.fu_full::IprAccess                    0      0.00%    100.00% # attempts to use FU when none available
system.cpu.iq.fu_full::InstPrefetch                 0      0.00%    100.00% # attempts to use FU when none available
system.cpu.iq.int_alu_accesses               11931233                       # Number of integer alu accesses
system.cpu.iq.int_inst_queue_reads           29940910                       # Number of integer instruction queue reads
system.cpu.iq.int_inst_queue_wakeup_accesses     11765223                       # Number of integer instruction queue wakeup accesses
system.cpu.iq.int_inst_queue_writes          12470757                       # Number of integer instruction queue writes
system.cpu.iq.iqInstsAdded                   11871508                       # Number of instructions added to the IQ (excludes non-spec)
system.cpu.iq.iqInstsIssued                  11892000                       # Number of instructions issued
system.cpu.iq.iqNonSpecInstsAdded                 591                       # Number of non-speculative instructions added to the IQ
system.cpu.iq.iqSquashedInstsExamined          600046                       # Number of squashed instructions iterated over during squash; mainly for profiling
system.cpu.iq.iqSquashedInstsIssued               402                       # Number of squashed instructions issued
system.cpu.iq.iqSquashedNonSpecRemoved             51                       # Number of squashed non-spec instructions that were removed
system.cpu.iq.iqSquashedOperandsExamined       147997                       # Number of squashed operands that are examined and possibly removed from graph
system.cpu.iq.issued_per_cycle::samples       6118261                       # Number of insts issued each cycle
system.cpu.iq.issued_per_cycle::mean         1.943690                       # Number of insts issued each cycle
system.cpu.iq.issued_per_cycle::stdev        1.816955                       # Number of insts issued each cycle
system.cpu.iq.issued_per_cycle::underflows            0      0.00%      0.00% # Number of insts issued each cycle
system.cpu.iq.issued_per_cycle::0             1489583     24.35%     24.35% # Number of insts issued each cycle
system.cpu.iq.issued_per_cycle::1             1472342     24.06%     48.41% # Number of insts issued each cycle
system.cpu.iq.issued_per_cycle::2             1317315     21.53%     69.94% # Number of insts issued each cycle
system.cpu.iq.issued_per_cycle::3              803749     13.14%     83.08% # Number of insts issued each cycle
system.cpu.iq.issued_per_cycle::4              355198      5.81%     88.88% # Number of insts issued each cycle
system.cpu.iq.issued_per_cycle::5              347778      5.68%     94.57% # Number of insts issued each cycle
system.cpu.iq.issued_per_cycle::6              178430      2.92%     97.49% # Number of insts issued each cycle
system.cpu.iq.issued_per_cycle::7               87409      1.43%     98.91% # Number of insts issued each cycle
system.cpu.iq.issued_per_cycle::8               66457      1.09%    100.00% # Number of insts issued each cycle
system.cpu.iq.issued_per_cycle::overflows            0      0.00%    100.00% # Number of insts issued each cycle
system.cpu.iq.issued_per_cycle::min_value            0                       # Number of insts issued each cycle
system.cpu.iq.issued_per_cycle::max_value            8                       # Number of insts issued each cycle
system.cpu.iq.issued_per_cycle::total         6118261                       # Number of insts issued each cycle
system.cpu.iq.rate                           1.909616                       # Inst issue rate
system.cpu.iq.vec_alu_accesses                    951                       # Number of vector alu accesses
system.cpu.iq.vec_inst_queue_reads               1949                       # Number of vector instruction queue reads
system.cpu.iq.vec_inst_queue_wakeup_accesses          815                       # Number of vector instruction queue wakeup accesses
system.cpu.iq.vec_inst_queue_writes              1439                       # Number of vector instruction queue writes
system.cpu.itb.accesses                             0                       # DTB accesses
system.cpu.itb.align_faults                         0                       # Number of TLB faults due to alignment restrictions
system.cpu.itb.domain_faults                        0                       # Number of TLB faults due to domain restrictions
system.cpu.itb.flush_entries                        0                       # Number of entries that have been flushed from TLB
system.cpu.itb.flush_tlb                            0                       # Number of times complete TLB was flushed
system.cpu.itb.flush_tlb_asid                       0                       # Number of times TLB was flushed by ASID
system.cpu.itb.flush_tlb_mva                        0                       # Number of times TLB was flushed by MVA
system.cpu.itb.flush_tlb_mva_asid                   0                       # Number of times TLB was flushed by MVA & ASID
system.cpu.itb.hits                                 0                       # DTB hits
system.cpu.itb.inst_accesses                        0                       # ITB inst accesses
system.cpu.itb.inst_hits                            0                       # ITB inst hits
system.cpu.itb.inst_misses                          0                       # ITB inst misses
system.cpu.itb.misses                               0                       # DTB misses
system.cpu.itb.perms_faults                         0                       # Number of TLB faults due to permissions restrictions
system.cpu.itb.prefetch_faults                      0                       # Number of TLB faults due to prefetch
system.cpu.itb.read_accesses                        0                       # DTB read accesses
system.cpu.itb.read_hits                            0                       # DTB read hits
system.cpu.itb.read_misses                          0                       # DTB read misses
system.cpu.itb.stage2_mmu.stage2_tlb.accesses            0                       # DTB accesses
system.cpu.itb.stage2_mmu.stage2_tlb.align_faults            0                       # Number of TLB faults due to alignment restrictions
system.cpu.itb.stage2_mmu.stage2_tlb.domain_faults            0                       # Number of TLB faults due to domain restrictions
system.cpu.itb.stage2_mmu.stage2_tlb.flush_entries            0                       # Number of entries that have been flushed from TLB
system.cpu.itb.stage2_mmu.stage2_tlb.flush_tlb            0                       # Number of times complete TLB was flushed
system.cpu.itb.stage2_mmu.stage2_tlb.flush_tlb_asid            0                       # Number of times TLB was flushed by ASID
system.cpu.itb.stage2_mmu.stage2_tlb.flush_tlb_mva            0                       # Number of times TLB was flushed by MVA
system.cpu.itb.stage2_mmu.stage2_tlb.flush_tlb_mva_asid            0                       # Number of times TLB was flushed by MVA & ASID
system.cpu.itb.stage2_mmu.stage2_tlb.hits            0                       # DTB hits
system.cpu.itb.stage2_mmu.stage2_tlb.inst_accesses            0                       # ITB inst accesses
system.cpu.itb.stage2_mmu.stage2_tlb.inst_hits            0                       # ITB inst hits
system.cpu.itb.stage2_mmu.stage2_tlb.inst_misses            0                       # ITB inst misses
system.cpu.itb.stage2_mmu.stage2_tlb.misses            0                       # DTB misses
system.cpu.itb.stage2_mmu.stage2_tlb.perms_faults            0                       # Number of TLB faults due to permissions restrictions
system.cpu.itb.stage2_mmu.stage2_tlb.prefetch_faults            0                       # Number of TLB faults due to prefetch
system.cpu.itb.stage2_mmu.stage2_tlb.read_accesses            0                       # DTB read accesses
system.cpu.itb.stage2_mmu.stage2_tlb.read_hits            0                       # DTB read hits
system.cpu.itb.stage2_mmu.stage2_tlb.read_misses            0                       # DTB read misses
system.cpu.itb.stage2_mmu.stage2_tlb.walker.walkRequestOrigin_Requested::Data            0                       # Table walker requests started/completed, data/inst
system.cpu.itb.stage2_mmu.stage2_tlb.walker.walkRequestOrigin_Requested::Inst            0                       # Table walker requests started/completed, data/inst
system.cpu.itb.stage2_mmu.stage2_tlb.walker.walkRequestOrigin_Requested::total            0                       # Table walker requests started/completed, data/inst
system.cpu.itb.stage2_mmu.stage2_tlb.walker.walkRequestOrigin_Completed::Data            0                       # Table walker requests started/completed, data/inst
system.cpu.itb.stage2_mmu.stage2_tlb.walker.walkRequestOrigin_Completed::Inst            0                       # Table walker requests started/completed, data/inst
system.cpu.itb.stage2_mmu.stage2_tlb.walker.walkRequestOrigin_Completed::total            0                       # Table walker requests started/completed, data/inst
system.cpu.itb.stage2_mmu.stage2_tlb.walker.walkRequestOrigin::total            0                       # Table walker requests started/completed, data/inst
system.cpu.itb.stage2_mmu.stage2_tlb.walker.walks            0                       # Table walker walks requested
system.cpu.itb.stage2_mmu.stage2_tlb.write_accesses            0                       # DTB write accesses
system.cpu.itb.stage2_mmu.stage2_tlb.write_hits            0                       # DTB write hits
system.cpu.itb.stage2_mmu.stage2_tlb.write_misses            0                       # DTB write misses
system.cpu.itb.walker.walkRequestOrigin_Requested::Data            0                       # Table walker requests started/completed, data/inst
system.cpu.itb.walker.walkRequestOrigin_Requested::Inst            0                       # Table walker requests started/completed, data/inst
system.cpu.itb.walker.walkRequestOrigin_Requested::total            0                       # Table walker requests started/completed, data/inst
system.cpu.itb.walker.walkRequestOrigin_Completed::Data            0                       # Table walker requests started/completed, data/inst
system.cpu.itb.walker.walkRequestOrigin_Completed::Inst            0                       # Table walker requests started/completed, data/inst
system.cpu.itb.walker.walkRequestOrigin_Completed::total            0                       # Table walker requests started/completed, data/inst
system.cpu.itb.walker.walkRequestOrigin::total            0                       # Table walker requests started/completed, data/inst
system.cpu.itb.walker.walks                         0                       # Table walker walks requested
system.cpu.itb.write_accesses                       0                       # DTB write accesses
system.cpu.itb.write_hits                           0                       # DTB write hits
system.cpu.itb.write_misses                         0                       # DTB write misses
system.cpu.memDep0.conflictingLoads             28385                       # Number of conflicting loads.
system.cpu.memDep0.conflictingStores            68036                       # Number of conflicting stores.
system.cpu.memDep0.insertedLoads              1218075                       # Number of loads inserted to the mem dependence unit.
system.cpu.memDep0.insertedStores             1029111                       # Number of stores inserted to the mem dependence unit.
system.cpu.misc_regfile_reads                 8232359                       # number of misc regfile reads
system.cpu.misc_regfile_writes                   2121                       # number of misc regfile writes
system.cpu.numCycles                          6227430                       # number of cpu cycles simulated
system.cpu.numWorkItemsCompleted                    0                       # number of work items this cpu completed
system.cpu.numWorkItemsStarted                      0                       # number of work items this cpu started
system.cpu.rename.BlockCycles                  455466                       # Number of cycles rename is blocking
system.cpu.rename.CommittedMaps              12203023                       # Number of HB maps that are committed
system.cpu.rename.IQFullEvents                 118503                       # Number of times rename has blocked due to IQ full
system.cpu.rename.IdleCycles                  2459707                       # Number of cycles rename is idle
system.cpu.rename.LQFullEvents                   3336                       # Number of times rename has blocked due to LQ full
system.cpu.rename.ROBFullEvents                  5156                       # Number of times rename has blocked due to ROB full
system.cpu.rename.RenameLookups              18685971                       # Number of register rename lookups that rename has made
system.cpu.rename.RenamedInsts               11964094                       # Number of instructions processed by rename
system.cpu.rename.RenamedOperands            12859431                       # Number of destination operands rename has renamed
system.cpu.rename.RunCycles                   2935877                       # Number of cycles rename is running
system.cpu.rename.SQFullEvents                  16984                       # Number of times rename has blocked due to SQ full
system.cpu.rename.SquashCycles                  17992                       # Number of cycles rename is squashing
system.cpu.rename.UnblockCycles                155712                       # Number of cycles rename is unblocking
system.cpu.rename.UndoneMaps                   656387                       # Number of HB maps that are undone due to squashing
system.cpu.rename.int_rename_lookups         13542841                       # Number of integer rename lookups
system.cpu.rename.serializeStallCycles          93507                       # count of cycles rename stalled for serializing inst
system.cpu.rename.serializingInsts               2149                       # count of serializing insts renamed
system.cpu.rename.skidInsts                    216267                       # count of insts added to the skid buffer
system.cpu.rename.tempSerializingInsts            591                       # count of temporary serializing insts renamed
system.cpu.rename.vec_rename_lookups             1254                       # Number of vector rename lookups
system.cpu.rob.rob_reads                     17452093                       # The number of ROB reads
system.cpu.rob.rob_writes                    23833366                       # The number of ROB writes
system.cpu.timesIdled                            1417                       # Number of times that the entire CPU went into an idle state and unscheduled itself
system.cpu.vec_regfile_reads                      926                       # number of vector regfile reads
system.cpu.vec_regfile_writes                     263                       # number of vector regfile writes
system.cpu.workload.numSyscalls                     9                       # Number of system calls
system.membus.snoop_filter.hit_multi_requests            0                       # Number of requests hitting in the snoop filter with multiple (>1) holders of the requested data.
system.membus.snoop_filter.hit_multi_snoops            0                       # Number of snoops hitting in the snoop filter with multiple (>1) holders of the requested data.
system.membus.snoop_filter.hit_single_requests            0                       # Number of requests hitting in the snoop filter with a single holder of the requested data.
system.membus.snoop_filter.hit_single_snoops            0                       # Number of snoops hitting in the snoop filter with a single holder of the requested data.
system.membus.snoop_filter.tot_requests          8252                       # Total number of requests made to the snoop filter.
system.membus.snoop_filter.tot_snoops               0                       # Total number of snoops made to the snoop filter.
system.tol2bus.snoop_filter.hit_multi_requests            3                       # Number of requests hitting in the snoop filter with multiple (>1) holders of the requested data.
system.tol2bus.snoop_filter.hit_multi_snoops            0                       # Number of snoops hitting in the snoop filter with multiple (>1) holders of the requested data.
system.tol2bus.snoop_filter.hit_single_requests        34364                       # Number of requests hitting in the snoop filter with a single holder of the requested data.
system.tol2bus.snoop_filter.hit_single_snoops            0                       # Number of snoops hitting in the snoop filter with a single holder of the requested data.
system.tol2bus.snoop_filter.tot_requests        70008                       # Total number of requests made to the snoop filter.
system.tol2bus.snoop_filter.tot_snoops              0                       # Total number of snoops made to the snoop filter.
system.membus.trans_dist::ReadResp               5683                       # Transaction distribution
system.membus.trans_dist::ReadExReq              2421                       # Transaction distribution
system.membus.trans_dist::ReadExResp             2421                       # Transaction distribution
system.membus.trans_dist::ReadSharedReq          5683                       # Transaction distribution
system.membus.trans_dist::InvalidateReq           148                       # Transaction distribution
system.membus.pkt_count_system.l2.mem_side::system.mem_ctrls.port        16356                       # Packet count per connected master and slave (bytes)
system.membus.pkt_count::total                  16356                       # Packet count per connected master and slave (bytes)
system.membus.pkt_size_system.l2.mem_side::system.mem_ctrls.port       518656                       # Cumulative packet size per connected master and slave (bytes)
system.membus.pkt_size::total                  518656                       # Cumulative packet size per connected master and slave (bytes)
system.membus.snoops                                0                       # Total snoops (count)
system.membus.snoopTraffic                          0                       # Total snoop traffic (bytes)
system.membus.snoop_fanout::samples              8252                       # Request fanout histogram
system.membus.snoop_fanout::mean                    0                       # Request fanout histogram
system.membus.snoop_fanout::stdev                   0                       # Request fanout histogram
system.membus.snoop_fanout::underflows              0      0.00%      0.00% # Request fanout histogram
system.membus.snoop_fanout::0                    8252    100.00%    100.00% # Request fanout histogram
system.membus.snoop_fanout::1                       0      0.00%    100.00% # Request fanout histogram
system.membus.snoop_fanout::overflows               0      0.00%    100.00% # Request fanout histogram
system.membus.snoop_fanout::min_value               0                       # Request fanout histogram
system.membus.snoop_fanout::max_value               0                       # Request fanout histogram
system.membus.snoop_fanout::total                8252                       # Request fanout histogram
system.membus.reqLayer0.occupancy             9869500                       # Layer occupancy (ticks)
system.membus.reqLayer0.utilization               0.3                       # Layer utilization (%)
system.membus.respLayer1.occupancy           42765500                       # Layer occupancy (ticks)
system.membus.respLayer1.utilization              1.4                       # Layer utilization (%)
system.membus.power_state.pwrStateResidencyTicks::UNDEFINED   3113714500                       # Cumulative time (in ticks) in various power states
system.tol2bus.trans_dist::ReadResp             33038                       # Transaction distribution
system.tol2bus.trans_dist::WritebackDirty         8305                       # Transaction distribution
system.tol2bus.trans_dist::WritebackClean         2666                       # Transaction distribution
system.tol2bus.trans_dist::CleanEvict           23393                       # Transaction distribution
system.tol2bus.trans_dist::ReadExReq             2457                       # Transaction distribution
system.tol2bus.trans_dist::ReadExResp            2457                       # Transaction distribution
system.tol2bus.trans_dist::ReadCleanReq          2922                       # Transaction distribution
system.tol2bus.trans_dist::ReadSharedReq        30116                       # Transaction distribution
system.tol2bus.trans_dist::InvalidateReq          149                       # Transaction distribution
system.tol2bus.trans_dist::InvalidateResp          149                       # Transaction distribution
system.tol2bus.pkt_count_system.cpu.icache.mem_side::system.l2.cpu_side         8510                       # Packet count per connected master and slave (bytes)
system.tol2bus.pkt_count_system.cpu.dcache.mem_side::system.l2.cpu_side        97142                       # Packet count per connected master and slave (bytes)
system.tol2bus.pkt_count::total                105652                       # Packet count per connected master and slave (bytes)
system.tol2bus.pkt_size_system.cpu.icache.mem_side::system.l2.cpu_side       357632                       # Cumulative packet size per connected master and slave (bytes)
system.tol2bus.pkt_size_system.cpu.dcache.mem_side::system.l2.cpu_side      2616192                       # Cumulative packet size per connected master and slave (bytes)
system.tol2bus.pkt_size::total                2973824                       # Cumulative packet size per connected master and slave (bytes)
system.tol2bus.snoops                               0                       # Total snoops (count)
system.tol2bus.snoopTraffic                         0                       # Total snoop traffic (bytes)
system.tol2bus.snoop_fanout::samples            35644                       # Request fanout histogram
system.tol2bus.snoop_fanout::mean            0.000084                       # Request fanout histogram
system.tol2bus.snoop_fanout::stdev           0.009174                       # Request fanout histogram
system.tol2bus.snoop_fanout::underflows             0      0.00%      0.00% # Request fanout histogram
system.tol2bus.snoop_fanout::0                  35641     99.99%     99.99% # Request fanout histogram
system.tol2bus.snoop_fanout::1                      3      0.01%    100.00% # Request fanout histogram
system.tol2bus.snoop_fanout::2                      0      0.00%    100.00% # Request fanout histogram
system.tol2bus.snoop_fanout::overflows              0      0.00%    100.00% # Request fanout histogram
system.tol2bus.snoop_fanout::min_value              0                       # Request fanout histogram
system.tol2bus.snoop_fanout::max_value              1                       # Request fanout histogram
system.tol2bus.snoop_fanout::total              35644                       # Request fanout histogram
system.tol2bus.reqLayer0.occupancy           46296994                       # Layer occupancy (ticks)
system.tol2bus.reqLayer0.utilization              1.5                       # Layer utilization (%)
system.tol2bus.respLayer1.occupancy          48935996                       # Layer occupancy (ticks)
system.tol2bus.respLayer1.utilization             1.6                       # Layer utilization (%)
system.tol2bus.respLayer0.occupancy           4383000                       # Layer occupancy (ticks)
system.tol2bus.respLayer0.utilization             0.1                       # Layer utilization (%)
system.tol2bus.power_state.pwrStateResidencyTicks::UNDEFINED   3113714500                       # Cumulative time (in ticks) in various power states
system.voltage_domain.voltage                       1                       # Voltage in Volts
system.clk_domain.clock                          1000                       # Clock period in ticks
system.l2.demand_hits::.cpu.inst                  519                       # number of demand (read+write) hits
system.l2.demand_hits::.cpu.data                25995                       # number of demand (read+write) hits
system.l2.demand_hits::.cpu.icache.prefetcher          877                       # number of demand (read+write) hits
system.l2.demand_hits::total                    27391                       # number of demand (read+write) hits
system.l2.overall_hits::.cpu.inst                 519                       # number of overall hits
system.l2.overall_hits::.cpu.data               25995                       # number of overall hits
system.l2.overall_hits::.cpu.icache.prefetcher          877                       # number of overall hits
system.l2.overall_hits::total                   27391                       # number of overall hits
system.l2.demand_misses::.cpu.inst               1526                       # number of demand (read+write) misses
system.l2.demand_misses::.cpu.data               6578                       # number of demand (read+write) misses
system.l2.demand_misses::total                   8104                       # number of demand (read+write) misses
system.l2.overall_misses::.cpu.inst              1526                       # number of overall misses
system.l2.overall_misses::.cpu.data              6578                       # number of overall misses
system.l2.overall_misses::total                  8104                       # number of overall misses
system.l2.demand_miss_latency::.cpu.inst    118466500                       # number of demand (read+write) miss cycles
system.l2.demand_miss_latency::.cpu.data    496920500                       # number of demand (read+write) miss cycles
system.l2.demand_miss_latency::total        615387000                       # number of demand (read+write) miss cycles
system.l2.overall_miss_latency::.cpu.inst    118466500                       # number of overall miss cycles
system.l2.overall_miss_latency::.cpu.data    496920500                       # number of overall miss cycles
system.l2.overall_miss_latency::total       615387000                       # number of overall miss cycles
system.l2.demand_accesses::.cpu.inst             2045                       # number of demand (read+write) accesses
system.l2.demand_accesses::.cpu.data            32573                       # number of demand (read+write) accesses
system.l2.demand_accesses::.cpu.icache.prefetcher          877                       # number of demand (read+write) accesses
system.l2.demand_accesses::total                35495                       # number of demand (read+write) accesses
system.l2.overall_accesses::.cpu.inst            2045                       # number of overall (read+write) accesses
system.l2.overall_accesses::.cpu.data           32573                       # number of overall (read+write) accesses
system.l2.overall_accesses::.cpu.icache.prefetcher          877                       # number of overall (read+write) accesses
system.l2.overall_accesses::total               35495                       # number of overall (read+write) accesses
system.l2.demand_miss_rate::.cpu.inst        0.746210                       # miss rate for demand accesses
system.l2.demand_miss_rate::.cpu.data        0.201946                       # miss rate for demand accesses
system.l2.demand_miss_rate::total            0.228314                       # miss rate for demand accesses
system.l2.overall_miss_rate::.cpu.inst       0.746210                       # miss rate for overall accesses
system.l2.overall_miss_rate::.cpu.data       0.201946                       # miss rate for overall accesses
system.l2.overall_miss_rate::total           0.228314                       # miss rate for overall accesses
system.l2.demand_avg_miss_latency::.cpu.inst 77632.044561                       # average overall miss latency
system.l2.demand_avg_miss_latency::.cpu.data 75542.794162                       # average overall miss latency
system.l2.demand_avg_miss_latency::total 75936.204344                       # average overall miss latency
system.l2.overall_avg_miss_latency::.cpu.inst 77632.044561                       # average overall miss latency
system.l2.overall_avg_miss_latency::.cpu.data 75542.794162                       # average overall miss latency
system.l2.overall_avg_miss_latency::total 75936.204344                       # average overall miss latency
system.l2.blocked_cycles::no_mshrs                  0                       # number of cycles access was blocked
system.l2.blocked_cycles::no_targets                0                       # number of cycles access was blocked
system.l2.blocked::no_mshrs                         0                       # number of cycles access was blocked
system.l2.blocked::no_targets                       0                       # number of cycles access was blocked
system.l2.avg_blocked_cycles::no_mshrs            nan                       # average number of cycles each access was blocked
system.l2.avg_blocked_cycles::no_targets          nan                       # average number of cycles each access was blocked
system.l2.demand_mshr_misses::.cpu.inst          1526                       # number of demand (read+write) MSHR misses
system.l2.demand_mshr_misses::.cpu.data          6578                       # number of demand (read+write) MSHR misses
system.l2.demand_mshr_misses::total              8104                       # number of demand (read+write) MSHR misses
system.l2.overall_mshr_misses::.cpu.inst         1526                       # number of overall MSHR misses
system.l2.overall_mshr_misses::.cpu.data         6578                       # number of overall MSHR misses
system.l2.overall_mshr_misses::total             8104                       # number of overall MSHR misses
system.l2.demand_mshr_miss_latency::.cpu.inst    103206500                       # number of demand (read+write) MSHR miss cycles
system.l2.demand_mshr_miss_latency::.cpu.data    431140500                       # number of demand (read+write) MSHR miss cycles
system.l2.demand_mshr_miss_latency::total    534347000                       # number of demand (read+write) MSHR miss cycles
system.l2.overall_mshr_miss_latency::.cpu.inst    103206500                       # number of overall MSHR miss cycles
system.l2.overall_mshr_miss_latency::.cpu.data    431140500                       # number of overall MSHR miss cycles
system.l2.overall_mshr_miss_latency::total    534347000                       # number of overall MSHR miss cycles
system.l2.demand_mshr_miss_rate::.cpu.inst     0.746210                       # mshr miss rate for demand accesses
system.l2.demand_mshr_miss_rate::.cpu.data     0.201946                       # mshr miss rate for demand accesses
system.l2.demand_mshr_miss_rate::total       0.228314                       # mshr miss rate for demand accesses
system.l2.overall_mshr_miss_rate::.cpu.inst     0.746210                       # mshr miss rate for overall accesses
system.l2.overall_mshr_miss_rate::.cpu.data     0.201946                       # mshr miss rate for overall accesses
system.l2.overall_mshr_miss_rate::total      0.228314                       # mshr miss rate for overall accesses
system.l2.demand_avg_mshr_miss_latency::.cpu.inst 67632.044561                       # average overall mshr miss latency
system.l2.demand_avg_mshr_miss_latency::.cpu.data 65542.794162                       # average overall mshr miss latency
system.l2.demand_avg_mshr_miss_latency::total 65936.204344                       # average overall mshr miss latency
system.l2.overall_avg_mshr_miss_latency::.cpu.inst 67632.044561                       # average overall mshr miss latency
system.l2.overall_avg_mshr_miss_latency::.cpu.data 65542.794162                       # average overall mshr miss latency
system.l2.overall_avg_mshr_miss_latency::total 65936.204344                       # average overall mshr miss latency
system.l2.replacements                              0                       # number of replacements
system.l2.WritebackDirty_hits::.writebacks         8305                       # number of WritebackDirty hits
system.l2.WritebackDirty_hits::total             8305                       # number of WritebackDirty hits
system.l2.WritebackDirty_accesses::.writebacks         8305                       # number of WritebackDirty accesses(hits+misses)
system.l2.WritebackDirty_accesses::total         8305                       # number of WritebackDirty accesses(hits+misses)
system.l2.WritebackClean_hits::.writebacks         2664                       # number of WritebackClean hits
system.l2.WritebackClean_hits::total             2664                       # number of WritebackClean hits
system.l2.WritebackClean_accesses::.writebacks         2664                       # number of WritebackClean accesses(hits+misses)
system.l2.WritebackClean_accesses::total         2664                       # number of WritebackClean accesses(hits+misses)
system.l2.ReadExReq_hits::.cpu.data                36                       # number of ReadExReq hits
system.l2.ReadExReq_hits::total                    36                       # number of ReadExReq hits
system.l2.ReadExReq_misses::.cpu.data            2421                       # number of ReadExReq misses
system.l2.ReadExReq_misses::total                2421                       # number of ReadExReq misses
system.l2.ReadExReq_miss_latency::.cpu.data    188097000                       # number of ReadExReq miss cycles
system.l2.ReadExReq_miss_latency::total     188097000                       # number of ReadExReq miss cycles
system.l2.ReadExReq_accesses::.cpu.data          2457                       # number of ReadExReq accesses(hits+misses)
system.l2.ReadExReq_accesses::total              2457                       # number of ReadExReq accesses(hits+misses)
system.l2.ReadExReq_miss_rate::.cpu.data     0.985348                       # miss rate for ReadExReq accesses
system.l2.ReadExReq_miss_rate::total         0.985348                       # miss rate for ReadExReq accesses
system.l2.ReadExReq_avg_miss_latency::.cpu.data 77693.928129                       # average ReadExReq miss latency
system.l2.ReadExReq_avg_miss_latency::total 77693.928129                       # average ReadExReq miss latency
system.l2.ReadExReq_mshr_misses::.cpu.data         2421                       # number of ReadExReq MSHR misses
system.l2.ReadExReq_mshr_misses::total           2421                       # number of ReadExReq MSHR misses
system.l2.ReadExReq_mshr_miss_latency::.cpu.data    163887000                       # number of ReadExReq MSHR miss cycles
system.l2.ReadExReq_mshr_miss_latency::total    163887000                       # number of ReadExReq MSHR miss cycles
system.l2.ReadExReq_mshr_miss_rate::.cpu.data     0.985348                       # mshr miss rate for ReadExReq accesses
system.l2.ReadExReq_mshr_miss_rate::total     0.985348                       # mshr miss rate for ReadExReq accesses
system.l2.ReadExReq_avg_mshr_miss_latency::.cpu.data 67693.928129                       # average ReadExReq mshr miss latency
system.l2.ReadExReq_avg_mshr_miss_latency::total 67693.928129                       # average ReadExReq mshr miss latency
system.l2.ReadCleanReq_hits::.cpu.inst            519                       # number of ReadCleanReq hits
system.l2.ReadCleanReq_hits::.cpu.icache.prefetcher          877                       # number of ReadCleanReq hits
system.l2.ReadCleanReq_hits::total               1396                       # number of ReadCleanReq hits
system.l2.ReadCleanReq_misses::.cpu.inst         1526                       # number of ReadCleanReq misses
system.l2.ReadCleanReq_misses::total             1526                       # number of ReadCleanReq misses
system.l2.ReadCleanReq_miss_latency::.cpu.inst    118466500                       # number of ReadCleanReq miss cycles
system.l2.ReadCleanReq_miss_latency::total    118466500                       # number of ReadCleanReq miss cycles
system.l2.ReadCleanReq_accesses::.cpu.inst         2045                       # number of ReadCleanReq accesses(hits+misses)
system.l2.ReadCleanReq_accesses::.cpu.icache.prefetcher          877                       # number of ReadCleanReq accesses(hits+misses)
system.l2.ReadCleanReq_accesses::total           2922                       # number of ReadCleanReq accesses(hits+misses)
[...]
system.cpu.dcache.demand_accesses::total      2140093                       # number of demand (read+write) accesses
system.cpu.dcache.overall_accesses::.cpu.data      2140105                       # number of overall (read+write) accesses
system.cpu.dcache.overall_accesses::total      2140105                       # number of overall (read+write) accesses
system.cpu.dcache.demand_miss_rate::.cpu.data     0.029886                       # miss rate for demand accesses
system.cpu.dcache.demand_miss_rate::total     0.029886                       # miss rate for demand accesses
system.cpu.dcache.overall_miss_rate::.cpu.data     0.029887                       # miss rate for overall accesses
system.cpu.dcache.overall_miss_rate::total     0.029887                       # miss rate for overall accesses
system.cpu.dcache.demand_avg_miss_latency::.cpu.data 32598.701058                       # average overall miss latency
system.cpu.dcache.demand_avg_miss_latency::total 32598.701058                       # average overall miss latency
system.cpu.dcache.overall_avg_miss_latency::.cpu.data 32597.681728                       # average overall miss latency
system.cpu.dcache.overall_avg_miss_latency::total 32597.681728                       # average overall miss latency
system.cpu.dcache.blocked_cycles::no_mshrs         8750                       # number of cycles access was blocked
system.cpu.dcache.blocked_cycles::no_targets            0                       # number of cycles access was blocked
system.cpu.dcache.blocked::no_mshrs               262                       # number of cycles access was blocked
system.cpu.dcache.blocked::no_targets               0                       # number of cycles access was blocked
system.cpu.dcache.avg_blocked_cycles::no_mshrs    33.396947                       # average number of cycles each access was blocked
system.cpu.dcache.avg_blocked_cycles::no_targets          nan                       # average number of cycles each access was blocked
system.cpu.dcache.writebacks::.writebacks         8305                       # number of writebacks
system.cpu.dcache.writebacks::total              8305                       # number of writebacks
system.cpu.dcache.demand_mshr_hits::.cpu.data        31242                       # number of demand (read+write) MSHR hits
system.cpu.dcache.demand_mshr_hits::total        31242                       # number of demand (read+write) MSHR hits
system.cpu.dcache.overall_mshr_hits::.cpu.data        31242                       # number of overall MSHR hits
system.cpu.dcache.overall_mshr_hits::total        31242                       # number of overall MSHR hits
system.cpu.dcache.demand_mshr_misses::.cpu.data        32717                       # number of demand (read+write) MSHR misses
system.cpu.dcache.demand_mshr_misses::total        32717                       # number of demand (read+write) MSHR misses
system.cpu.dcache.overall_mshr_misses::.cpu.data        32719                       # number of overall MSHR misses
system.cpu.dcache.overall_mshr_misses::total        32719                       # number of overall MSHR misses
system.cpu.dcache.demand_mshr_miss_latency::.cpu.data    823134895                       # number of demand (read+write) MSHR miss cycles
system.cpu.dcache.demand_mshr_miss_latency::total    823134895                       # number of demand (read+write) MSHR miss cycles
system.cpu.dcache.overall_mshr_miss_latency::.cpu.data    823319395                       # number of overall MSHR miss cycles
system.cpu.dcache.overall_mshr_miss_latency::total    823319395                       # number of overall MSHR miss cycles
system.cpu.dcache.demand_mshr_miss_rate::.cpu.data     0.015288                       # mshr miss rate for demand accesses
system.cpu.dcache.demand_mshr_miss_rate::total     0.015288                       # mshr miss rate for demand accesses
system.cpu.dcache.overall_mshr_miss_rate::.cpu.data     0.015289                       # mshr miss rate for overall accesses
system.cpu.dcache.overall_mshr_miss_rate::total     0.015289                       # mshr miss rate for overall accesses
system.cpu.dcache.demand_avg_mshr_miss_latency::.cpu.data 25159.241220                       # average overall mshr miss latency
system.cpu.dcache.demand_avg_mshr_miss_latency::total 25159.241220                       # average overall mshr miss latency
system.cpu.dcache.overall_avg_mshr_miss_latency::.cpu.data 25163.342248                       # average overall mshr miss latency
system.cpu.dcache.overall_avg_mshr_miss_latency::total 25163.342248                       # average overall mshr miss latency
system.cpu.dcache.replacements                  31698                       # number of replacements
system.cpu.dcache.ReadReq_hits::.cpu.data      1143324                       # number of ReadReq hits
system.cpu.dcache.ReadReq_hits::total         1143324                       # number of ReadReq hits
system.cpu.dcache.ReadReq_misses::.cpu.data        54696                       # number of ReadReq misses
system.cpu.dcache.ReadReq_misses::total         54696                       # number of ReadReq misses
system.cpu.dcache.ReadReq_miss_latency::.cpu.data   1575487000                       # number of ReadReq miss cycles
system.cpu.dcache.ReadReq_miss_latency::total   1575487000                       # number of ReadReq miss cycles
system.cpu.dcache.ReadReq_accesses::.cpu.data      1198020                       # number of ReadReq accesses(hits+misses)
system.cpu.dcache.ReadReq_accesses::total      1198020                       # number of ReadReq accesses(hits+misses)
system.cpu.dcache.ReadReq_miss_rate::.cpu.data     0.045655                       # miss rate for ReadReq accesses
system.cpu.dcache.ReadReq_miss_rate::total     0.045655                       # miss rate for ReadReq accesses
system.cpu.dcache.ReadReq_avg_miss_latency::.cpu.data 28804.428112                       # average ReadReq miss latency
system.cpu.dcache.ReadReq_avg_miss_latency::total 28804.428112                       # average ReadReq miss latency
system.cpu.dcache.ReadReq_mshr_hits::.cpu.data        24585                       # number of ReadReq MSHR hits
system.cpu.dcache.ReadReq_mshr_hits::total        24585                       # number of ReadReq MSHR hits
system.cpu.dcache.ReadReq_mshr_misses::.cpu.data        30111                       # number of ReadReq MSHR misses
system.cpu.dcache.ReadReq_mshr_misses::total        30111                       # number of ReadReq MSHR misses
system.cpu.dcache.ReadReq_mshr_miss_latency::.cpu.data    626305500                       # number of ReadReq MSHR miss cycles
system.cpu.dcache.ReadReq_mshr_miss_latency::total    626305500                       # number of ReadReq MSHR miss cycles
system.cpu.dcache.ReadReq_mshr_miss_rate::.cpu.data     0.025134                       # mshr miss rate for ReadReq accesses
system.cpu.dcache.ReadReq_mshr_miss_rate::total     0.025134                       # mshr miss rate for ReadReq accesses
system.cpu.dcache.ReadReq_avg_mshr_miss_latency::.cpu.data 20799.890405                       # average ReadReq mshr miss latency
system.cpu.dcache.ReadReq_avg_mshr_miss_latency::total 20799.890405                       # average ReadReq mshr miss latency
system.cpu.dcache.WriteReq_hits::.cpu.data       932798                       # number of WriteReq hits
system.cpu.dcache.WriteReq_hits::total         932798                       # number of WriteReq hits
system.cpu.dcache.WriteReq_misses::.cpu.data         9124                       # number of WriteReq misses
system.cpu.dcache.WriteReq_misses::total         9124                       # number of WriteReq misses
system.cpu.dcache.WriteReq_miss_latency::.cpu.data    505035913                       # number of WriteReq miss cycles
system.cpu.dcache.WriteReq_miss_latency::total    505035913                       # number of WriteReq miss cycles
system.cpu.dcache.WriteReq_accesses::.cpu.data       941922                       # number of WriteReq accesses(hits+misses)
system.cpu.dcache.WriteReq_accesses::total       941922                       # number of WriteReq accesses(hits+misses)
system.cpu.dcache.WriteReq_miss_rate::.cpu.data     0.009687                       # miss rate for WriteReq accesses
system.cpu.dcache.WriteReq_miss_rate::total     0.009687                       # miss rate for WriteReq accesses
system.cpu.dcache.WriteReq_avg_miss_latency::.cpu.data 55352.467448                       # average WriteReq miss latency
system.cpu.dcache.WriteReq_avg_miss_latency::total 55352.467448                       # average WriteReq miss latency
system.cpu.dcache.WriteReq_mshr_hits::.cpu.data         6657                       # number of WriteReq MSHR hits
system.cpu.dcache.WriteReq_mshr_hits::total         6657                       # number of WriteReq MSHR hits
system.cpu.dcache.WriteReq_mshr_misses::.cpu.data         2467                       # number of WriteReq MSHR misses
system.cpu.dcache.WriteReq_mshr_misses::total         2467                       # number of WriteReq MSHR misses
system.cpu.dcache.WriteReq_mshr_miss_latency::.cpu.data    192510987                       # number of WriteReq MSHR miss cycles
system.cpu.dcache.WriteReq_mshr_miss_latency::total    192510987                       # number of WriteReq MSHR miss cycles
system.cpu.dcache.WriteReq_mshr_miss_rate::.cpu.data     0.002619                       # mshr miss rate for WriteReq accesses
system.cpu.dcache.WriteReq_mshr_miss_rate::total     0.002619                       # mshr miss rate for WriteReq accesses
system.cpu.dcache.WriteReq_avg_mshr_miss_latency::.cpu.data 78034.449534                       # average WriteReq mshr miss latency
system.cpu.dcache.WriteReq_avg_mshr_miss_latency::total 78034.449534                       # average WriteReq mshr miss latency
system.cpu.dcache.SoftPFReq_hits::.cpu.data           10                       # number of SoftPFReq hits
system.cpu.dcache.SoftPFReq_hits::total            10                       # number of SoftPFReq hits
system.cpu.dcache.SoftPFReq_misses::.cpu.data            2                       # number of SoftPFReq misses
system.cpu.dcache.SoftPFReq_misses::total            2                       # number of SoftPFReq misses
system.cpu.dcache.SoftPFReq_accesses::.cpu.data           12                       # number of SoftPFReq accesses(hits+misses)
system.cpu.dcache.SoftPFReq_accesses::total           12                       # number of SoftPFReq accesses(hits+misses)
system.cpu.dcache.SoftPFReq_miss_rate::.cpu.data     0.166667                       # miss rate for SoftPFReq accesses
system.cpu.dcache.SoftPFReq_miss_rate::total     0.166667                       # miss rate for SoftPFReq accesses
system.cpu.dcache.SoftPFReq_mshr_misses::.cpu.data            2                       # number of SoftPFReq MSHR misses
system.cpu.dcache.SoftPFReq_mshr_misses::total            2                       # number of SoftPFReq MSHR misses
system.cpu.dcache.SoftPFReq_mshr_miss_latency::.cpu.data       184500                       # number of SoftPFReq MSHR miss cycles
system.cpu.dcache.SoftPFReq_mshr_miss_latency::total       184500                       # number of SoftPFReq MSHR miss cycles
system.cpu.dcache.SoftPFReq_mshr_miss_rate::.cpu.data     0.166667                       # mshr miss rate for SoftPFReq accesses
system.cpu.dcache.SoftPFReq_mshr_miss_rate::total     0.166667                       # mshr miss rate for SoftPFReq accesses
system.cpu.dcache.SoftPFReq_avg_mshr_miss_latency::.cpu.data        92250                       # average SoftPFReq mshr miss latency
system.cpu.dcache.SoftPFReq_avg_mshr_miss_latency::total        92250                       # average SoftPFReq mshr miss latency
system.cpu.dcache.WriteLineReq_hits::.cpu.data           12                       # number of WriteLineReq hits
system.cpu.dcache.WriteLineReq_hits::total           12                       # number of WriteLineReq hits
system.cpu.dcache.WriteLineReq_misses::.cpu.data          139                       # number of WriteLineReq misses
system.cpu.dcache.WriteLineReq_misses::total          139                       # number of WriteLineReq misses
system.cpu.dcache.WriteLineReq_miss_latency::.cpu.data      4457408                       # number of WriteLineReq miss cycles
system.cpu.dcache.WriteLineReq_miss_latency::total      4457408                       # number of WriteLineReq miss cycles
system.cpu.dcache.WriteLineReq_accesses::.cpu.data          151                       # number of WriteLineReq accesses(hits+misses)
system.cpu.dcache.WriteLineReq_accesses::total          151                       # number of WriteLineReq accesses(hits+misses)
system.cpu.dcache.WriteLineReq_miss_rate::.cpu.data     0.920530                       # miss rate for WriteLineReq accesses
system.cpu.dcache.WriteLineReq_miss_rate::total     0.920530                       # miss rate for WriteLineReq accesses
system.cpu.dcache.WriteLineReq_avg_miss_latency::.cpu.data 32067.683453                       # average WriteLineReq miss latency
system.cpu.dcache.WriteLineReq_avg_miss_latency::total 32067.683453                       # average WriteLineReq miss latency
system.cpu.dcache.WriteLineReq_mshr_misses::.cpu.data          139                       # number of WriteLineReq MSHR misses
system.cpu.dcache.WriteLineReq_mshr_misses::total          139                       # number of WriteLineReq MSHR misses
system.cpu.dcache.WriteLineReq_mshr_miss_latency::.cpu.data      4318408                       # number of WriteLineReq MSHR miss cycles
system.cpu.dcache.WriteLineReq_mshr_miss_latency::total      4318408                       # number of WriteLineReq MSHR miss cycles
system.cpu.dcache.WriteLineReq_mshr_miss_rate::.cpu.data     0.920530                       # mshr miss rate for WriteLineReq accesses
system.cpu.dcache.WriteLineReq_mshr_miss_rate::total     0.920530                       # mshr miss rate for WriteLineReq accesses
system.cpu.dcache.WriteLineReq_avg_mshr_miss_latency::.cpu.data 31067.683453                       # average WriteLineReq mshr miss latency
system.cpu.dcache.WriteLineReq_avg_mshr_miss_latency::total 31067.683453                       # average WriteLineReq mshr miss latency
system.cpu.dcache.LoadLockedReq_hits::.cpu.data          554                       # number of LoadLockedReq hits
system.cpu.dcache.LoadLockedReq_hits::total          554                       # number of LoadLockedReq hits
system.cpu.dcache.LoadLockedReq_misses::.cpu.data            4                       # number of LoadLockedReq misses
system.cpu.dcache.LoadLockedReq_misses::total            4                       # number of LoadLockedReq misses
system.cpu.dcache.LoadLockedReq_miss_latency::.cpu.data       292000                       # number of LoadLockedReq miss cycles
system.cpu.dcache.LoadLockedReq_miss_latency::total       292000                       # number of LoadLockedReq miss cycles
system.cpu.dcache.LoadLockedReq_accesses::.cpu.data          558                       # number of LoadLockedReq accesses(hits+misses)
system.cpu.dcache.LoadLockedReq_accesses::total          558                       # number of LoadLockedReq accesses(hits+misses)
system.cpu.dcache.LoadLockedReq_miss_rate::.cpu.data     0.007168                       # miss rate for LoadLockedReq accesses
system.cpu.dcache.LoadLockedReq_miss_rate::total     0.007168                       # miss rate for LoadLockedReq accesses
system.cpu.dcache.LoadLockedReq_avg_miss_latency::.cpu.data        73000                       # average LoadLockedReq miss latency
system.cpu.dcache.LoadLockedReq_avg_miss_latency::total        73000                       # average LoadLockedReq miss latency
system.cpu.dcache.LoadLockedReq_mshr_hits::.cpu.data            1                       # number of LoadLockedReq MSHR hits
system.cpu.dcache.LoadLockedReq_mshr_hits::total            1                       # number of LoadLockedReq MSHR hits
system.cpu.dcache.LoadLockedReq_mshr_misses::.cpu.data            3                       # number of LoadLockedReq MSHR misses
system.cpu.dcache.LoadLockedReq_mshr_misses::total            3                       # number of LoadLockedReq MSHR misses
system.cpu.dcache.LoadLockedReq_mshr_miss_latency::.cpu.data       201500                       # number of LoadLockedReq MSHR miss cycles
system.cpu.dcache.LoadLockedReq_mshr_miss_latency::total       201500                       # number of LoadLockedReq MSHR miss cycles
system.cpu.dcache.LoadLockedReq_mshr_miss_rate::.cpu.data     0.005376                       # mshr miss rate for LoadLockedReq accesses
system.cpu.dcache.LoadLockedReq_mshr_miss_rate::total     0.005376                       # mshr miss rate for LoadLockedReq accesses
system.cpu.dcache.LoadLockedReq_avg_mshr_miss_latency::.cpu.data 67166.666667                       # average LoadLockedReq mshr miss latency
system.cpu.dcache.LoadLockedReq_avg_mshr_miss_latency::total 67166.666667                       # average LoadLockedReq mshr miss latency
system.cpu.dcache.StoreCondReq_hits::.cpu.data          530                       # number of StoreCondReq hits
system.cpu.dcache.StoreCondReq_hits::total          530                       # number of StoreCondReq hits
system.cpu.dcache.StoreCondReq_accesses::.cpu.data          530                       # number of StoreCondReq accesses(hits+misses)
system.cpu.dcache.StoreCondReq_accesses::total          530                       # number of StoreCondReq accesses(hits+misses)
system.cpu.dcache.power_state.pwrStateResidencyTicks::UNDEFINED   3113714500                       # Cumulative time (in ticks) in various power states
system.cpu.dcache.tags.tagsinuse           987.704660                       # Cycle average of tags in use
system.cpu.dcache.tags.total_refs             2109950                       # Total number of references to valid blocks.
system.cpu.dcache.tags.sampled_refs             32722                       # Sample count of references to valid blocks.
system.cpu.dcache.tags.avg_refs             64.481083                       # Average number of references to valid blocks.
system.cpu.dcache.tags.warmup_cycle            176500                       # Cycle when the warmup percentage was hit.
system.cpu.dcache.tags.occ_blocks::.cpu.data   987.704660                       # Average occupied blocks per requestor
system.cpu.dcache.tags.occ_percent::.cpu.data     0.964555                       # Average percentage of cache occupancy
system.cpu.dcache.tags.occ_percent::total     0.964555                       # Average percentage of cache occupancy
system.cpu.dcache.tags.occ_task_id_blocks::1024         1024                       # Occupied blocks per task id
system.cpu.dcache.tags.age_task_id_blocks_1024::0           29                       # Occupied blocks per task id
system.cpu.dcache.tags.age_task_id_blocks_1024::1          204                       # Occupied blocks per task id
system.cpu.dcache.tags.age_task_id_blocks_1024::2          778                       # Occupied blocks per task id
system.cpu.dcache.tags.age_task_id_blocks_1024::3           13                       # Occupied blocks per task id
system.cpu.dcache.tags.occ_task_id_percent::1024            1                       # Percentage of cache occupancy per task id
system.cpu.dcache.tags.tag_accesses           4315108                       # Number of tag accesses
system.cpu.dcache.tags.data_accesses          4315108                       # Number of data accesses
system.cpu.dcache.tags.power_state.pwrStateResidencyTicks::UNDEFINED   3113714500                       # Cumulative time (in ticks) in various power states
system.cpu.power_state.pwrStateResidencyTicks::ON   3113714500                       # Cumulative time (in ticks) in various power states

---------- End Simulation Statistics   ----------
