
---------- Begin Simulation Statistics ----------
final_tick                                 9507963000                       # Number of ticks from beginning of simulation (restored from checkpoints and never reset)
host_inst_rate                                 146897                       # Simulator instruction rate (inst/s)
host_mem_usage                                 868340                       # Number of bytes of host memory used
host_op_rate                                   146952                       # Simulator op (including micro ops) rate (op/s)
host_seconds                                    68.08                       # Real time elapsed on the host
host_tick_rate                              139668730                       # Simulator tick rate (ticks/s)
sim_freq                                 1000000000000                       # Frequency of simulated ticks
sim_insts                                    10000003                       # Number of instructions simulated
sim_ops                                      10003757                       # Number of ops (including micro ops) simulated
sim_seconds                                  0.009508                       # Number of seconds simulated
sim_ticks                                  9507963000                       # Number of ticks simulated
system.cpu.branchPred.BTBCorrect                    0                       # Number of correct BTB predictions (this stat may not work properly.
system.cpu.branchPred.BTBHitPct             99.956354                       # BTB Hit Percentage
system.cpu.branchPred.BTBHits                 1596233                       # Number of BTB hits
system.cpu.branchPred.BTBLookups              1596930                       # Number of BTB lookups
system.cpu.branchPred.RASInCorrect                  1                       # Number of incorrect RAS predictions.
system.cpu.branchPred.condIncorrect               884                       # Number of conditional branches incorrect
system.cpu.branchPred.condPredicted           1598275                       # Number of conditional branches predicted
system.cpu.branchPred.indirectHits                  0                       # Number of indirect target hits.
system.cpu.branchPred.indirectLookups             141                       # Number of indirect predictor lookups.
system.cpu.branchPred.indirectMisses              141                       # Number of indirect misses.
system.cpu.branchPred.lookups                 1606727                       # Number of BP lookups
system.cpu.branchPred.usedRAS                    2764                       # Number of times the RAS was used to get a target.
system.cpu.branchPredindirectMispredicted           42                       # Number of mispredicted indirect branches.
system.cpu.cc_regfile_reads                   4675911                       # number of cc regfile reads
system.cpu.cc_regfile_writes                  4676187                       # number of cc regfile writes
system.cpu.commit.amos                              0                       # Number of atomic instructions committed
system.cpu.commit.branchMispredicts               685                       # The number of times a branch was mispredicted
system.cpu.commit.branches                    1479051                       # Number of branches committed
system.cpu.commit.bw_lim_events                786234                       # number cycles where commit BW limit reached
system.cpu.commit.commitNonSpecStalls              26                       # The number of times commit has been forced to stall to communicate backwards
system.cpu.commit.commitSquashedInsts          614807                       # The number of squashed insts skipped by commit
system.cpu.commit.committedInsts             10000214                       # Number of instructions committed
system.cpu.commit.committedOps               10003968                       # Number of ops (including micro ops) committed
system.cpu.commit.committed_per_cycle::samples     18905470                       # Number of insts commited each cycle
system.cpu.commit.committed_per_cycle::mean     0.529157                       # Number of insts commited each cycle
system.cpu.commit.committed_per_cycle::stdev     1.828760                       # Number of insts commited each cycle
system.cpu.commit.committed_per_cycle::underflows            0      0.00%      0.00% # Number of insts commited each cycle
system.cpu.commit.committed_per_cycle::0     17087318     90.38%     90.38% # Number of insts commited each cycle
system.cpu.commit.committed_per_cycle::1       288932      1.53%     91.91% # Number of insts commited each cycle
system.cpu.commit.committed_per_cycle::2       151493      0.80%     92.71% # Number of insts commited each cycle
system.cpu.commit.committed_per_cycle::3       103833      0.55%     93.26% # Number of insts commited each cycle
system.cpu.commit.committed_per_cycle::4        33639      0.18%     93.44% # Number of insts commited each cycle
system.cpu.commit.committed_per_cycle::5        56558      0.30%     93.74% # Number of insts commited each cycle
system.cpu.commit.committed_per_cycle::6       388908      2.06%     95.80% # Number of insts commited each cycle
system.cpu.commit.committed_per_cycle::7         8555      0.05%     95.84% # Number of insts commited each cycle
system.cpu.commit.committed_per_cycle::8       786234      4.16%    100.00% # Number of insts commited each cycle
system.cpu.commit.committed_per_cycle::overflows            0      0.00%    100.00% # Number of insts commited each cycle
system.cpu.commit.committed_per_cycle::min_value            0                       # Number of insts commited each cycle
system.cpu.commit.committed_per_cycle::max_value            8                       # Number of insts commited each cycle
system.cpu.commit.committed_per_cycle::total     18905470                       # Number of insts commited each cycle
system.cpu.commit.fp_insts                          0                       # Number of committed floating point instructions.
system.cpu.commit.function_calls                 2417                       # Number of function calls committed.
system.cpu.commit.int_insts                   8532200                       # Number of committed integer instructions.
system.cpu.commit.loads                       2926492                       # Number of loads committed
system.cpu.commit.membars                          16                       # Number of memory barriers committed
system.cpu.commit.op_class_0::No_OpClass            4      0.00%      0.00% # Class of committed instruction
system.cpu.commit.op_class_0::IntAlu          5610050     56.08%     56.08% # Class of committed instruction
system.cpu.commit.op_class_0::IntMult             449      0.00%     56.08% # Class of committed instruction
system.cpu.commit.op_class_0::IntDiv                2      0.00%     56.08% # Class of committed instruction
system.cpu.commit.op_class_0::FloatAdd              0      0.00%     56.08% # Class of committed instruction
system.cpu.commit.op_class_0::FloatCmp              0      0.00%     56.08% # Class of committed instruction
system.cpu.commit.op_class_0::FloatCvt              0      0.00%     56.08% # Class of committed instruction
system.cpu.commit.op_class_0::FloatMult             0      0.00%     56.08% # Class of committed instruction
system.cpu.commit.op_class_0::FloatMultAcc            0      0.00%     56.08% # Class of committed instruction
system.cpu.commit.op_class_0::FloatDiv              0      0.00%     56.08% # Class of committed instruction
system.cpu.commit.op_class_0::FloatMisc             1      0.00%     56.08% # Class of committed instruction
system.cpu.commit.op_class_0::FloatSqrt             0      0.00%     56.08% # Class of committed instruction
system.cpu.commit.op_class_0::SimdAdd              19      0.00%     56.08% # Class of committed instruction
system.cpu.commit.op_class_0::SimdAddAcc            0      0.00%     56.08% # Class of committed instruction
system.cpu.commit.op_class_0::SimdAlu              12      0.00%     56.08% # Class of committed instruction
system.cpu.commit.op_class_0::SimdCmp              16      0.00%     56.08% # Class of committed instruction
system.cpu.commit.op_class_0::SimdCvt               0      0.00%     56.08% # Class of committed instruction
system.cpu.commit.op_class_0::SimdMisc             16      0.00%     56.08% # Class of committed instruction
system.cpu.commit.op_class_0::SimdMult              0      0.00%     56.08% # Class of committed instruction
system.cpu.commit.op_class_0::SimdMultAcc            0      0.00%     56.08% # Class of committed instruction
system.cpu.commit.op_class_0::SimdShift             0      0.00%     56.08% # Class of committed instruction
system.cpu.commit.op_class_0::SimdShiftAcc            0      0.00%     56.08% # Class of committed instruction
system.cpu.commit.op_class_0::SimdDiv               0      0.00%     56.08% # Class of committed instruction
system.cpu.commit.op_class_0::SimdSqrt              0      0.00%     56.08% # Class of committed instruction
system.cpu.commit.op_class_0::SimdFloatAdd            0      0.00%     56.08% # Class of committed instruction
system.cpu.commit.op_class_0::SimdFloatAlu            0      0.00%     56.08% # Class of committed instruction
system.cpu.commit.op_class_0::SimdFloatCmp            0      0.00%     56.08% # Class of committed instruction
system.cpu.commit.op_class_0::SimdFloatCvt            0      0.00%     56.08% # Class of committed instruction
system.cpu.commit.op_class_0::SimdFloatDiv            0      0.00%     56.08% # Class of committed instruction
system.cpu.commit.op_class_0::SimdFloatMisc            0      0.00%     56.08% # Class of committed instruction
system.cpu.commit.op_class_0::SimdFloatMult            0      0.00%     56.08% # Class of committed instruction
system.cpu.commit.op_class_0::SimdFloatMultAcc            0      0.00%     56.08% # Class of committed instruction
system.cpu.commit.op_class_0::SimdFloatSqrt            0      0.00%     56.08% # Class of committed instruction
system.cpu.commit.op_class_0::SimdReduceAdd            0      0.00%     56.08% # Class of committed instruction
system.cpu.commit.op_class_0::SimdReduceAlu            0      0.00%     56.08% # Class of committed instruction
system.cpu.commit.op_class_0::SimdReduceCmp            0      0.00%     56.08% # Class of committed instruction
system.cpu.commit.op_class_0::SimdFloatReduceAdd            0      0.00%     56.08% # Class of committed instruction
system.cpu.commit.op_class_0::SimdFloatReduceCmp            0      0.00%     56.08% # Class of committed instruction
system.cpu.commit.op_class_0::SimdAes               0      0.00%     56.08% # Class of committed instruction
system.cpu.commit.op_class_0::SimdAesMix            0      0.00%     56.08% # Class of committed instruction
system.cpu.commit.op_class_0::SimdSha1Hash            0      0.00%     56.08% # Class of committed instruction
system.cpu.commit.op_class_0::SimdSha1Hash2            0      0.00%     56.08% # Class of committed instruction
system.cpu.commit.op_class_0::SimdSha256Hash            0      0.00%     56.08% # Class of committed instruction
system.cpu.commit.op_class_0::SimdSha256Hash2            0      0.00%     56.08% # Class of committed instruction
system.cpu.commit.op_class_0::SimdShaSigma2            0      0.00%     56.08% # Class of committed instruction
system.cpu.commit.op_class_0::SimdShaSigma3            0      0.00%     56.08% # Class of committed instruction
system.cpu.commit.op_class_0::SimdPredAlu            0      0.00%     56.08% # Class of committed instruction
system.cpu.commit.op_class_0::MemRead         2926492     29.25%     85.34% # Class of committed instruction
system.cpu.commit.op_class_0::MemWrite        1466907     14.66%    100.00% # Class of committed instruction
system.cpu.commit.op_class_0::FloatMemRead            0      0.00%    100.00% # Class of committed instruction
system.cpu.commit.op_class_0::FloatMemWrite            0      0.00%    100.00% # Class of committed instruction
system.cpu.commit.op_class_0::IprAccess             0      0.00%    100.00% # Class of committed instruction
system.cpu.commit.op_class_0::InstPrefetch            0      0.00%    100.00% # Class of committed instruction
system.cpu.commit.op_class_0::total          10003968                       # Class of committed instruction
system.cpu.commit.refs                        4393399                       # Number of memory references committed
system.cpu.commit.swp_count                         0                       # Number of s/w prefetches committed
system.cpu.commit.vec_insts                       248                       # Number of committed Vector instructions.
system.cpu.committedInsts                    10000003                       # Number of Instructions Simulated
system.cpu.committedOps                      10003757                       # Number of Ops (including micro ops) Simulated
system.cpu.cpi                               1.901592                       # CPI: Cycles Per Instruction
system.cpu.cpi_total                         1.901592                       # CPI: Total CPI of All Threads
system.cpu.decode.BlockedCycles              16901408                       # Number of cycles decode is blocked
system.cpu.decode.BranchMispred                   205                       # Number of times decode detected a branch misprediction
system.cpu.decode.BranchResolved              1562592                       # Number of times decode resolved a branch
system.cpu.decode.DecodedInsts               10663024                       # Number of instructions handled by decode
system.cpu.decode.IdleCycles                   521860                       # Number of cycles decode is idle
system.cpu.decode.RunCycles                   1285034                       # Number of cycles decode is running
system.cpu.decode.SquashCycles                   5807                       # Number of cycles decode is squashing
system.cpu.decode.SquashedInsts                   675                       # Number of squashed instructions handled by decode
system.cpu.decode.UnblockCycles                271031                       # Number of cycles decode is unblocking
system.cpu.dtb.accesses                             0                       # DTB accesses
system.cpu.dtb.align_faults                         0                       # Number of TLB faults due to alignment restrictions
system.cpu.dtb.domain_faults                        0                       # Number of TLB faults due to domain restrictions
system.cpu.dtb.flush_entries                        0                       # Number of entries that have been flushed from TLB
system.cpu.dtb.flush_tlb                            0                       # Number of times complete TLB was flushed
system.cpu.dtb.flush_tlb_asid                       0                       # Number of times TLB was flushed by ASID
system.cpu.dtb.flush_tlb_mva                        0                       # Number of times TLB was flushed by MVA
system.cpu.dtb.flush_tlb_mva_asid                   0                       # Number of times TLB was flushed by MVA & ASID
system.cpu.dtb.hits                                 0                       # DTB hits
system.cpu.dtb.inst_accesses                        0                       # ITB inst accesses
system.cpu.dtb.inst_hits                            0                       # ITB inst hits
system.cpu.dtb.inst_misses                          0                       # ITB inst misses
system.cpu.dtb.misses                               0                       # DTB misses
system.cpu.dtb.perms_faults                         0                       # Number of TLB faults due to permissions restrictions
system.cpu.dtb.prefetch_faults                      0                       # Number of TLB faults due to prefetch
system.cpu.dtb.read_accesses                        0                       # DTB read accesses
system.cpu.dtb.read_hits                            0                       # DTB read hits
system.cpu.dtb.read_misses                          0                       # DTB read misses
system.cpu.dtb.stage2_mmu.stage2_tlb.accesses            0                       # DTB accesses
system.cpu.dtb.stage2_mmu.stage2_tlb.align_faults            0                       # Number of TLB faults due to alignment restrictions
system.cpu.dtb.stage2_mmu.stage2_tlb.domain_faults            0                       # Number of TLB faults due to domain restrictions
system.cpu.dtb.stage2_mmu.stage2_tlb.flush_entries            0                       # Number of entries that have been flushed from TLB
system.cpu.dtb.stage2_mmu.stage2_tlb.flush_tlb            0                       # Number of times complete TLB was flushed
system.cpu.dtb.stage2_mmu.stage2_tlb.flush_tlb_asid            0                       # Number of times TLB was flushed by ASID
system.cpu.dtb.stage2_mmu.stage2_tlb.flush_tlb_mva            0                       # Number of times TLB was flushed by MVA
system.cpu.dtb.stage2_mmu.stage2_tlb.flush_tlb_mva_asid            0                       # Number of times TLB was flushed by MVA & ASID
system.cpu.dtb.stage2_mmu.stage2_tlb.hits            0                       # DTB hits
system.cpu.dtb.stage2_mmu.stage2_tlb.inst_accesses            0                       # ITB inst accesses
system.cpu.dtb.stage2_mmu.stage2_tlb.inst_hits            0                       # ITB inst hits
system.cpu.dtb.stage2_mmu.stage2_tlb.inst_misses            0                       # ITB inst misses
system.cpu.dtb.stage2_mmu.stage2_tlb.misses            0                       # DTB misses
system.cpu.dtb.stage2_mmu.stage2_tlb.perms_faults            0                       # Number of TLB faults due to permissions restrictions
system.cpu.dtb.stage2_mmu.stage2_tlb.prefetch_faults            0                       # Number of TLB faults due to prefetch
system.cpu.dtb.stage2_mmu.stage2_tlb.read_accesses            0                       # DTB read accesses
system.cpu.dtb.stage2_mmu.stage2_tlb.read_hits            0                       # DTB read hits
system.cpu.dtb.stage2_mmu.stage2_tlb.read_misses            0                       # DTB read misses
system.cpu.dtb.stage2_mmu.stage2_tlb.walker.walkRequestOrigin_Requested::Data            0                       # Table walker requests started/completed, data/inst
system.cpu.dtb.stage2_mmu.stage2_tlb.walker.walkRequestOrigin_Requested::Inst            0                       # Table walker requests started/completed, data/inst
system.cpu.dtb.stage2_mmu.stage2_tlb.walker.walkRequestOrigin_Requested::total            0                       # Table walker requests started/completed, data/inst
system.cpu.dtb.stage2_mmu.stage2_tlb.walker.walkRequestOrigin_Completed::Data            0                       # Table walker requests started/completed, data/inst
system.cpu.dtb.stage2_mmu.stage2_tlb.walker.walkRequestOrigin_Completed::Inst            0                       # Table walker requests started/completed, data/inst
system.cpu.dtb.stage2_mmu.stage2_tlb.walker.walkRequestOrigin_Completed::total            0                       # Table walker requests started/completed, data/inst
system.cpu.dtb.stage2_mmu.stage2_tlb.walker.walkRequestOrigin::total            0                       # Table walker requests started/completed, data/inst
system.cpu.dtb.stage2_mmu.stage2_tlb.walker.walks            0                       # Table walker walks requested
system.cpu.dtb.stage2_mmu.stage2_tlb.write_accesses            0                       # DTB write accesses
system.cpu.dtb.stage2_mmu.stage2_tlb.write_hits            0                       # DTB write hits
system.cpu.dtb.stage2_mmu.stage2_tlb.write_misses            0                       # DTB write misses
system.cpu.dtb.walker.walkRequestOrigin_Requested::Data            0                       # Table walker requests started/completed, data/inst
system.cpu.dtb.walker.walkRequestOrigin_Requested::Inst            0                       # Table walker requests started/completed, data/inst
system.cpu.dtb.walker.walkRequestOrigin_Requested::total            0                       # Table walker requests started/completed, data/inst
system.cpu.dtb.walker.walkRequestOrigin_Completed::Data            0                       # Table walker requests started/completed, data/inst
system.cpu.dtb.walker.walkRequestOrigin_Completed::Inst            0                       # Table walker requests started/completed, data/inst
system.cpu.dtb.walker.walkRequestOrigin_Completed::total            0                       # Table walker requests started/completed, data/inst
system.cpu.dtb.walker.walkRequestOrigin::total            0                       # Table walker requests started/completed, data/inst
system.cpu.dtb.walker.walks                         0                       # Table walker walks requested
system.cpu.dtb.write_accesses                       0                       # DTB write accesses
system.cpu.dtb.write_hits                           0                       # DTB write hits
system.cpu.dtb.write_misses                         0                       # DTB write misses
system.cpu.fetch.Branches                     1606727                       # Number of branches that fetch encountered
system.cpu.fetch.CacheLines                    685413                       # Number of cache lines fetched
system.cpu.fetch.Cycles                      18282694                       # Number of cycles fetch has run and was not squashing or blocked
system.cpu.fetch.IcacheSquashes                   408                       # Number of outstanding Icache misses that were squashed
system.cpu.fetch.IcacheWaitRetryStallCycles           22                       # Number of stall cycles due to full MSHR
system.cpu.fetch.Insts                       10892529                       # Number of instructions fetch has processed
system.cpu.fetch.MiscStallCycles                    2                       # Number of cycles fetch has spent waiting on interrupts, or bad addresses, or out of MSHRs
system.cpu.fetch.SquashCycles                   12012                       # Number of cycles fetch has spent squashing
system.cpu.fetch.branchRate                  0.084494                       # Number of branch fetches per cycle
system.cpu.fetch.icacheStallCycles             696416                       # Number of cycles fetch is stalled on an Icache miss
system.cpu.fetch.predictedBranches            1598997                       # Number of branches that fetch has predicted taken
system.cpu.fetch.rate                        0.572811                       # Number of inst fetches per cycle
system.cpu.fetch.rateDist::samples           18985140                       # Number of instructions fetched each cycle (Total)
system.cpu.fetch.rateDist::mean              0.574036                       # Number of instructions fetched each cycle (Total)
system.cpu.fetch.rateDist::stdev             1.718288                       # Number of instructions fetched each cycle (Total)
system.cpu.fetch.rateDist::underflows               0      0.00%      0.00% # Number of instructions fetched each cycle (Total)
system.cpu.fetch.rateDist::0                 16929301     89.17%     89.17% # Number of instructions fetched each cycle (Total)
system.cpu.fetch.rateDist::1                     4598      0.02%     89.20% # Number of instructions fetched each cycle (Total)
system.cpu.fetch.rateDist::2                    95626      0.50%     89.70% # Number of instructions fetched each cycle (Total)
system.cpu.fetch.rateDist::3                    19691      0.10%     89.80% # Number of instructions fetched each cycle (Total)
system.cpu.fetch.rateDist::4                   773076      4.07%     93.87% # Number of instructions fetched each cycle (Total)
system.cpu.fetch.rateDist::5                    18915      0.10%     93.97% # Number of instructions fetched each cycle (Total)
system.cpu.fetch.rateDist::6                   559163      2.95%     96.92% # Number of instructions fetched each cycle (Total)
system.cpu.fetch.rateDist::7                   576784      3.04%     99.96% # Number of instructions fetched each cycle (Total)
system.cpu.fetch.rateDist::8                     7986      0.04%    100.00% # Number of instructions fetched each cycle (Total)
system.cpu.fetch.rateDist::overflows                0      0.00%    100.00% # Number of instructions fetched each cycle (Total)
system.cpu.fetch.rateDist::min_value                0                       # Number of instructions fetched each cycle (Total)
system.cpu.fetch.rateDist::max_value                8                       # Number of instructions fetched each cycle (Total)
system.cpu.fetch.rateDist::total             18985140                       # Number of instructions fetched each cycle (Total)
system.cpu.idleCycles                           30787                       # Total number of cycles that the CPU has spent unscheduled due to idling
system.cpu.iew.branchMispredicts                  760                       # Number of branch mispredicts detected at execute
system.cpu.iew.exec_branches                  1566865                       # Number of branches executed
system.cpu.iew.exec_nop                           238                       # number of nop insts executed
system.cpu.iew.exec_rate                     0.770250                       # Inst execution rate
system.cpu.iew.exec_refs                      8684780                       # number of memory reference insts executed
system.cpu.iew.exec_stores                    1554107                       # Number of stores executed
system.cpu.iew.exec_swp                             0                       # number of swp insts executed
system.cpu.iew.iewBlockCycles                12253020                       # Number of cycles IEW is blocking
system.cpu.iew.iewDispLoadInsts               3096249                       # Number of dispatched load instructions
system.cpu.iew.iewDispNonSpecInsts                 33                       # Number of dispatched non-speculative instructions
system.cpu.iew.iewDispSquashedInsts               110                       # Number of squashed instructions skipped by dispatch
system.cpu.iew.iewDispStoreInsts              1554771                       # Number of dispatched store instructions
system.cpu.iew.iewDispatchedInsts            10616669                       # Number of instructions dispatched to IQ
system.cpu.iew.iewExecLoadInsts               7130673                       # Number of load instructions executed
system.cpu.iew.iewExecSquashedInsts               976                       # Number of squashed instructions skipped in execute
system.cpu.iew.iewExecutedInsts              14647021                       # Number of executed instructions
system.cpu.iew.iewIQFullEvents                  25692                       # Number of times the IQ has become full, causing a stall
system.cpu.iew.iewIdleCycles                        0                       # Number of cycles IEW is idle
system.cpu.iew.iewLSQFullEvents                 90757                       # Number of times the LSQ has become full, causing a stall
system.cpu.iew.iewSquashCycles                   5807                       # Number of cycles IEW is squashing
system.cpu.iew.iewUnblockCycles                152374                       # Number of cycles IEW is unblocking
system.cpu.iew.lsq.thread0.blockedLoads             0                       # Number of blocked loads due to partial load-store forwarding
system.cpu.iew.lsq.thread0.cacheBlocked        217914                       # Number of times an access to memory failed due to the cache being blocked
system.cpu.iew.lsq.thread0.forwLoads              731                       # Number of loads that had data forwarded from stores
system.cpu.iew.lsq.thread0.ignoredResponses            2                       # Number of memory responses ignored because the instruction is squashed
system.cpu.iew.lsq.thread0.invAddrLoads             0                       # Number of loads ignored due to an invalid address
system.cpu.iew.lsq.thread0.invAddrSwpfs             0                       # Number of software prefetches ignored due to an invalid address
system.cpu.iew.lsq.thread0.memOrderViolation           14                       # Number of memory ordering violations
system.cpu.iew.lsq.thread0.rescheduledLoads           23                       # Number of loads that were rescheduled
system.cpu.iew.lsq.thread0.squashedLoads       169750                       # Number of loads squashed
system.cpu.iew.lsq.thread0.squashedStores        87861                       # Number of stores squashed
system.cpu.iew.memOrderViolationEvents             14                       # Number of memory order violations
system.cpu.iew.predictedNotTakenIncorrect          572                       # Number of branches that were predicted not taken incorrectly
system.cpu.iew.predictedTakenIncorrect            188                       # Number of branches that were predicted taken incorrectly
system.cpu.iew.wb_consumers                  12255815                       # num instructions consuming a value
system.cpu.iew.wb_count                      10524690                       # cumulative count of insts written-back
system.cpu.iew.wb_fanout                     0.570840                       # average fanout of values written-back
system.cpu.iew.wb_producers                   6996109                       # num instructions producing a value
system.cpu.iew.wb_rate                       0.553467                       # insts written-back per cycle
system.cpu.iew.wb_sent                       10611699                       # cumulative count of insts sent to commit
system.cpu.int_regfile_reads                 17741588                       # number of integer regfile reads
system.cpu.int_regfile_writes                 7493206                       # number of integer regfile writes
system.cpu.ipc                               0.525875                       # IPC: Instructions Per Cycle
system.cpu.ipc_total                         0.525875                       # IPC: Total IPC of All Threads
system.cpu.iq.FU_type_0::No_OpClass                 5      0.00%      0.00% # Type of FU issued
system.cpu.iq.FU_type_0::IntAlu               5962239     40.70%     40.70% # Type of FU issued
system.cpu.iq.FU_type_0::IntMult                  508      0.00%     40.71% # Type of FU issued
system.cpu.iq.FU_type_0::IntDiv                     2      0.00%     40.71% # Type of FU issued
system.cpu.iq.FU_type_0::FloatAdd                   0      0.00%     40.71% # Type of FU issued
system.cpu.iq.FU_type_0::FloatCmp                   0      0.00%     40.71% # Type of FU issued
system.cpu.iq.FU_type_0::FloatCvt                   0      0.00%     40.71% # Type of FU issued
system.cpu.iq.FU_type_0::FloatMult                  0      0.00%     40.71% # Type of FU issued
system.cpu.iq.FU_type_0::FloatMultAcc               0      0.00%     40.71% # Type of FU issued
system.cpu.iq.FU_type_0::FloatDiv                   0      0.00%     40.71% # Type of FU issued
system.cpu.iq.FU_type_0::FloatMisc                  1      0.00%     40.71% # Type of FU issued
system.cpu.iq.FU_type_0::FloatSqrt                  0      0.00%     40.71% # Type of FU issued
system.cpu.iq.FU_type_0::SimdAdd                   25      0.00%     40.71% # Type of FU issued
system.cpu.iq.FU_type_0::SimdAddAcc                 0      0.00%     40.71% # Type of FU issued
system.cpu.iq.FU_type_0::SimdAlu                   16      0.00%     40.71% # Type of FU issued
system.cpu.iq.FU_type_0::SimdCmp                   20      0.00%     40.71% # Type of FU issued
system.cpu.iq.FU_type_0::SimdCvt                    0      0.00%     40.71% # Type of FU issued
system.cpu.iq.FU_type_0::SimdMisc                  18      0.00%     40.71% # Type of FU issued
system.cpu.iq.FU_type_0::SimdMult                   0      0.00%     40.71% # Type of FU issued
system.cpu.iq.FU_type_0::SimdMultAcc                0      0.00%     40.71% # Type of FU issued
system.cpu.iq.FU_type_0::SimdShift                  0      0.00%     40.71% # Type of FU issued
system.cpu.iq.FU_type_0::SimdShiftAcc               0      0.00%     40.71% # Type of FU issued
system.cpu.iq.FU_type_0::SimdDiv                    0      0.00%     40.71% # Type of FU issued
system.cpu.iq.FU_type_0::SimdSqrt                   0      0.00%     40.71% # Type of FU issued
system.cpu.iq.FU_type_0::SimdFloatAdd               0      0.00%     40.71% # Type of FU issued
system.cpu.iq.FU_type_0::SimdFloatAlu               0      0.00%     40.71% # Type of FU issued
system.cpu.iq.FU_type_0::SimdFloatCmp               0      0.00%     40.71% # Type of FU issued
system.cpu.iq.FU_type_0::SimdFloatCvt               0      0.00%     40.71% # Type of FU issued
system.cpu.iq.FU_type_0::SimdFloatDiv               0      0.00%     40.71% # Type of FU issued
system.cpu.iq.FU_type_0::SimdFloatMisc              0      0.00%     40.71% # Type of FU issued
system.cpu.iq.FU_type_0::SimdFloatMult              0      0.00%     40.71% # Type of FU issued
system.cpu.iq.FU_type_0::SimdFloatMultAcc            0      0.00%     40.71% # Type of FU issued
system.cpu.iq.FU_type_0::SimdFloatSqrt              0      0.00%     40.71% # Type of FU issued
system.cpu.iq.FU_type_0::SimdReduceAdd              0      0.00%     40.71% # Type of FU issued
system.cpu.iq.FU_type_0::SimdReduceAlu              0      0.00%     40.71% # Type of FU issued
system.cpu.iq.FU_type_0::SimdReduceCmp              0      0.00%     40.71% # Type of FU issued
system.cpu.iq.FU_type_0::SimdFloatReduceAdd            0      0.00%     40.71% # Type of FU issued
system.cpu.iq.FU_type_0::SimdFloatReduceCmp            0      0.00%     40.71% # Type of FU issued
system.cpu.iq.FU_type_0::SimdAes                    0      0.00%     40.71% # Type of FU issued
system.cpu.iq.FU_type_0::SimdAesMix                 0      0.00%     40.71% # Type of FU issued
system.cpu.iq.FU_type_0::SimdSha1Hash               0      0.00%     40.71% # Type of FU issued
system.cpu.iq.FU_type_0::SimdSha1Hash2              0      0.00%     40.71% # Type of FU issued
system.cpu.iq.FU_type_0::SimdSha256Hash             0      0.00%     40.71% # Type of FU issued
system.cpu.iq.FU_type_0::SimdSha256Hash2            0      0.00%     40.71% # Type of FU issued
system.cpu.iq.FU_type_0::SimdShaSigma2              0      0.00%     40.71% # Type of FU issued
system.cpu.iq.FU_type_0::SimdShaSigma3              0      0.00%     40.71% # Type of FU issued
system.cpu.iq.FU_type_0::SimdPredAlu                0      0.00%     40.71% # Type of FU issued
system.cpu.iq.FU_type_0::MemRead              7130840     48.68%     89.39% # Type of FU issued
system.cpu.iq.FU_type_0::MemWrite             1554328     10.61%    100.00% # Type of FU issued
system.cpu.iq.FU_type_0::FloatMemRead               0      0.00%    100.00% # Type of FU issued
system.cpu.iq.FU_type_0::FloatMemWrite              0      0.00%    100.00% # Type of FU issued
system.cpu.iq.FU_type_0::IprAccess                  0      0.00%    100.00% # Type of FU issued
system.cpu.iq.FU_type_0::InstPrefetch               0      0.00%    100.00% # Type of FU issued
system.cpu.iq.FU_type_0::total               14648002                       # Type of FU issued
system.cpu.iq.fp_alu_accesses                       0                       # Number of floating point alu accesses
system.cpu.iq.fp_inst_queue_reads                   0                       # Number of floating instruction queue reads
system.cpu.iq.fp_inst_queue_wakeup_accesses            0                       # Number of floating instruction queue wakeup accesses
system.cpu.iq.fp_inst_queue_writes                  0                       # Number of floating instruction queue writes
system.cpu.iq.fu_busy_cnt                      985196                       # FU busy when requested
system.cpu.iq.fu_busy_rate                   0.067258                       # FU busy rate (busy events/executed inst)
system.cpu.iq.fu_full::No_OpClass                   0      0.00%      0.00% # attempts to use FU when none available
system.cpu.iq.fu_full::IntAlu                     208      0.02%      0.02% # attempts to use FU when none available
system.cpu.iq.fu_full::IntMult                      0      0.00%      0.02% # attempts to use FU when none available
system.cpu.iq.fu_full::IntDiv                       0      0.00%      0.02% # attempts to use FU when none available
system.cpu.iq.fu_full::FloatAdd                     0      0.00%      0.02% # attempts to use FU when none available
system.cpu.iq.fu_full::FloatCmp                     0      0.00%      0.02% # attempts to use FU when none available
system.cpu.iq.fu_full::FloatCvt                     0      0.00%      0.02% # attempts to use FU when none available
system.cpu.iq.fu_full::FloatMult                    0      0.00%      0.02% # attempts to use FU when none available
system.cpu.iq.fu_full::FloatMultAcc                 0      0.00%      0.02% # attempts to use FU when none available
system.cpu.iq.fu_full::FloatDiv                     0      0.00%      0.02% # attempts to use FU when none available
system.cpu.iq.fu_full::FloatMisc                    0      0.00%      0.02% # attempts to use FU when none available
system.cpu.iq.fu_full::FloatSqrt                    0      0.00%      0.02% # attempts to use FU when none available
system.cpu.iq.fu_full::SimdAdd                      0      0.00%      0.02% # attempts to use FU when none available
system.cpu.iq.fu_full::SimdAddAcc                   0      0.00%      0.02% # attempts to use FU when none available
system.cpu.iq.fu_full::SimdAlu                      1      0.00%      0.02% # attempts to use FU when none available
system.cpu.iq.fu_full::SimdCmp                      2      0.00%      0.02% # attempts to use FU when none available
system.cpu.iq.fu_full::SimdCvt                      0      0.00%      0.02% # attempts to use FU when none available
system.cpu.iq.fu_full::SimdMisc                     0      0.00%      0.02% # attempts to use FU when none available
system.cpu.iq.fu_full::SimdMult                     0      0.00%      0.02% # attempts to use FU when none available
system.cpu.iq.fu_full::SimdMultAcc                  0      0.00%      0.02% # attempts to use FU when none available
system.cpu.iq.fu_full::SimdShift                    0      0.00%      0.02% # attempts to use FU when none available
system.cpu.iq.fu_full::SimdShiftAcc                 0      0.00%      0.02% # attempts to use FU when none available
system.cpu.iq.fu_full::SimdDiv                      0      0.00%      0.02% # attempts to use FU when none available
system.cpu.iq.fu_full::SimdSqrt                     0      0.00%      0.02% # attempts to use FU when none available
system.cpu.iq.fu_full::SimdFloatAdd                 0      0.00%      0.02% # attempts to use FU when none available
system.cpu.iq.fu_full::SimdFloatAlu                 0      0.00%      0.02% # attempts to use FU when none available
system.cpu.iq.fu_full::SimdFloatCmp                 0      0.00%      0.02% # attempts to use FU when none available
system.cpu.iq.fu_full::SimdFloatCvt                 0      0.00%      0.02% # attempts to use FU when none available
system.cpu.iq.fu_full::SimdFloatDiv                 0      0.00%      0.02% # attempts to use FU when none available
system.cpu.iq.fu_full::SimdFloatMisc                0      0.00%      0.02% # attempts to use FU when none available
system.cpu.iq.fu_full::SimdFloatMult                0      0.00%      0.02% # attempts to use FU when none available
system.cpu.iq.fu_full::SimdFloatMultAcc             0      0.00%      0.02% # attempts to use FU when none available
system.cpu.iq.fu_full::SimdFloatSqrt                0      0.00%      0.02% # attempts to use FU when none available
system.cpu.iq.fu_full::SimdReduceAdd                0      0.00%      0.02% # attempts to use FU when none available
system.cpu.iq.fu_full::SimdReduceAlu                0      0.00%      0.02% # attempts to use FU when none available
system.cpu.iq.fu_full::SimdReduceCmp                0      0.00%      0.02% # attempts to use FU when none available
system.cpu.iq.fu_full::SimdFloatReduceAdd            0      0.00%      0.02% # attempts to use FU when none available
system.cpu.iq.fu_full::SimdFloatReduceCmp            0      0.00%      0.02% # attempts to use FU when none available
system.cpu.iq.fu_full::SimdAes                      0      0.00%      0.02% # attempts to use FU when none available
system.cpu.iq.fu_full::SimdAesMix                   0      0.00%      0.02% # attempts to use FU when none available
system.cpu.iq.fu_full::SimdSha1Hash                 0      0.00%      0.02% # attempts to use FU when none available
system.cpu.iq.fu_full::SimdSha1Hash2                0      0.00%      0.02% # attempts to use FU when none available
system.cpu.iq.fu_full::SimdSha256Hash               0      0.00%      0.02% # attempts to use FU when none available
system.cpu.iq.fu_full::SimdSha256Hash2              0      0.00%      0.02% # attempts to use FU when none available
system.cpu.iq.fu_full::SimdShaSigma2                0      0.00%      0.02% # attempts to use FU when none available
system.cpu.iq.fu_full::SimdShaSigma3                0      0.00%      0.02% # attempts to use FU when none available
system.cpu.iq.fu_full::SimdPredAlu                  0      0.00%      0.02% # attempts to use FU when none available
system.cpu.iq.fu_full::MemRead                 984513     99.93%     99.95% # attempts to use FU when none available
system.cpu.iq.fu_full::MemWrite                   472      0.05%    100.00% # attempts to use FU when none available
system.cpu.iq.fu_full::FloatMemRead                 0      0.00%    100.00% # attempts to use FU when none available
system.cpu.iq.fu_full::FloatMemWrite                0      0.00%    100.00% # attempts to use FU when none available
system.cpu.iq.fu_full::IprAccess                    0      0.00%    100.00% # attempts to use FU when none available
system.cpu.iq.fu_full::InstPrefetch                 0      0.00%    100.00% # attempts to use FU when none available
system.cpu.iq.int_alu_accesses               15632757                       # Number of integer alu accesses
system.cpu.iq.int_inst_queue_reads           49265570                       # Number of integer instruction queue reads
system.cpu.iq.int_inst_queue_wakeup_accesses     10524360                       # Number of integer instruction queue wakeup accesses
system.cpu.iq.int_inst_queue_writes          11228219                       # Number of integer instruction queue writes
system.cpu.iq.iqInstsAdded                   10616398                       # Number of instructions added to the IQ (excludes non-spec)
system.cpu.iq.iqInstsIssued                  14648002                       # Number of instructions issued
system.cpu.iq.iqNonSpecInstsAdded                  33                       # Number of non-speculative instructions added to the IQ
system.cpu.iq.iqSquashedInstsExamined          612645                       # Number of squashed instructions iterated over during squash; mainly for profiling
system.cpu.iq.iqSquashedInstsIssued               157                       # Number of squashed instructions issued
system.cpu.iq.iqSquashedNonSpecRemoved              7                       # Number of squashed non-spec instructions that were removed
system.cpu.iq.iqSquashedOperandsExamined       201028                       # Number of squashed operands that are examined and possibly removed from graph
system.cpu.iq.issued_per_cycle::samples      18985140                       # Number of insts issued each cycle
system.cpu.iq.issued_per_cycle::mean         0.771551                       # Number of insts issued each cycle
system.cpu.iq.issued_per_cycle::stdev        1.853523                       # Number of insts issued each cycle
system.cpu.iq.issued_per_cycle::underflows            0      0.00%      0.00% # Number of insts issued each cycle
system.cpu.iq.issued_per_cycle::0            15600785     82.17%     82.17% # Number of insts issued each cycle
system.cpu.iq.issued_per_cycle::1              384357      2.02%     84.20% # Number of insts issued each cycle
system.cpu.iq.issued_per_cycle::2              222408      1.17%     85.37% # Number of insts issued each cycle
system.cpu.iq.issued_per_cycle::3              370629      1.95%     87.32% # Number of insts issued each cycle
system.cpu.iq.issued_per_cycle::4             1074684      5.66%     92.98% # Number of insts issued each cycle
system.cpu.iq.issued_per_cycle::5              438806      2.31%     95.29% # Number of insts issued each cycle
system.cpu.iq.issued_per_cycle::6              286495      1.51%     96.80% # Number of insts issued each cycle
system.cpu.iq.issued_per_cycle::7              360602      1.90%     98.70% # Number of insts issued each cycle
system.cpu.iq.issued_per_cycle::8              246374      1.30%    100.00% # Number of insts issued each cycle
system.cpu.iq.issued_per_cycle::overflows            0      0.00%    100.00% # Number of insts issued each cycle
system.cpu.iq.issued_per_cycle::min_value            0                       # Number of insts issued each cycle
system.cpu.iq.issued_per_cycle::max_value            8                       # Number of insts issued each cycle
system.cpu.iq.issued_per_cycle::total        18985140                       # Number of insts issued each cycle
system.cpu.iq.rate                           0.770302                       # Inst issue rate
system.cpu.iq.vec_alu_accesses                    436                       # Number of vector alu accesses
system.cpu.iq.vec_inst_queue_reads                922                       # Number of vector instruction queue reads
system.cpu.iq.vec_inst_queue_wakeup_accesses          330                       # Number of vector instruction queue wakeup accesses
system.cpu.iq.vec_inst_queue_writes               870                       # Number of vector instruction queue writes
system.cpu.itb.accesses                             0                       # DTB accesses
system.cpu.itb.align_faults                         0                       # Number of TLB faults due to alignment restrictions
system.cpu.itb.domain_faults                        0                       # Number of TLB faults due to domain restrictions
system.cpu.itb.flush_entries                        0                       # Number of entries that have been flushed from TLB
system.cpu.itb.flush_tlb                            0                       # Number of times complete TLB was flushed
system.cpu.itb.flush_tlb_asid                       0                       # Number of times TLB was flushed by ASID
system.cpu.itb.flush_tlb_mva                        0                       # Number of times TLB was flushed by MVA
system.cpu.itb.flush_tlb_mva_asid                   0                       # Number of times TLB was flushed by MVA & ASID
system.cpu.itb.hits                                 0                       # DTB hits
system.cpu.itb.inst_accesses                        0                       # ITB inst accesses
system.cpu.itb.inst_hits                            0                       # ITB inst hits
system.cpu.itb.inst_misses                          0                       # ITB inst misses
system.cpu.itb.misses                               0                       # DTB misses
system.cpu.itb.perms_faults                         0                       # Number of TLB faults due to permissions restrictions
system.cpu.itb.prefetch_faults                      0                       # Number of TLB faults due to prefetch
system.cpu.itb.read_accesses                        0                       # DTB read accesses
system.cpu.itb.read_hits                            0                       # DTB read hits
system.cpu.itb.read_misses                          0                       # DTB read misses
system.cpu.itb.stage2_mmu.stage2_tlb.accesses            0                       # DTB accesses
system.cpu.itb.stage2_mmu.stage2_tlb.align_faults            0                       # Number of TLB faults due to alignment restrictions
system.cpu.itb.stage2_mmu.stage2_tlb.domain_faults            0                       # Number of TLB faults due to domain restrictions
system.cpu.itb.stage2_mmu.stage2_tlb.flush_entries            0                       # Number of entries that have been flushed from TLB
system.cpu.itb.stage2_mmu.stage2_tlb.flush_tlb            0                       # Number of times complete TLB was flushed
system.cpu.itb.stage2_mmu.stage2_tlb.flush_tlb_asid            0                       # Number of times TLB was flushed by ASID
system.cpu.itb.stage2_mmu.stage2_tlb.flush_tlb_mva            0                       # Number of times TLB was flushed by MVA
system.cpu.itb.stage2_mmu.stage2_tlb.flush_tlb_mva_asid            0                       # Number of times TLB was flushed by MVA & ASID
system.cpu.itb.stage2_mmu.stage2_tlb.hits            0                       # DTB hits
system.cpu.itb.stage2_mmu.stage2_tlb.inst_accesses            0                       # ITB inst accesses
system.cpu.itb.stage2_mmu.stage2_tlb.inst_hits            0                       # ITB inst hits
system.cpu.itb.stage2_mmu.stage2_tlb.inst_misses            0                       # ITB inst misses
system.cpu.itb.stage2_mmu.stage2_tlb.misses            0                       # DTB misses
system.cpu.itb.stage2_mmu.stage2_tlb.perms_faults            0                       # Number of TLB faults due to permissions restrictions
system.cpu.itb.stage2_mmu.stage2_tlb.prefetch_faults            0                       # Number of TLB faults due to prefetch
system.cpu.itb.stage2_mmu.stage2_tlb.read_accesses            0                       # DTB read accesses
system.cpu.itb.stage2_mmu.stage2_tlb.read_hits            0                       # DTB read hits
system.cpu.itb.stage2_mmu.stage2_tlb.read_misses            0                       # DTB read misses
system.cpu.itb.stage2_mmu.stage2_tlb.walker.walkRequestOrigin_Requested::Data            0                       # Table walker requests started/completed, data/inst
system.cpu.itb.stage2_mmu.stage2_tlb.walker.walkRequestOrigin_Requested::Inst            0                       # Table walker requests started/completed, data/inst
system.cpu.itb.stage2_mmu.stage2_tlb.walker.walkRequestOrigin_Requested::total            0                       # Table walker requests started/completed, data/inst
system.cpu.itb.stage2_mmu.stage2_tlb.walker.walkRequestOrigin_Completed::Data            0                       # Table walker requests started/completed, data/inst
system.cpu.itb.stage2_mmu.stage2_tlb.walker.walkRequestOrigin_Completed::Inst            0                       # Table walker requests started/completed, data/inst
system.cpu.itb.stage2_mmu.stage2_tlb.walker.walkRequestOrigin_Completed::total            0                       # Table walker requests started/completed, data/inst
system.cpu.itb.stage2_mmu.stage2_tlb.walker.walkRequestOrigin::total            0                       # Table walker requests started/completed, data/inst
system.cpu.itb.stage2_mmu.stage2_tlb.walker.walks            0                       # Table walker walks requested
system.cpu.itb.stage2_mmu.stage2_tlb.write_accesses            0                       # DTB write accesses
system.cpu.itb.stage2_mmu.stage2_tlb.write_hits            0                       # DTB write hits
system.cpu.itb.stage2_mmu.stage2_tlb.write_misses            0                       # DTB write misses
system.cpu.itb.walker.walkRequestOrigin_Requested::Data            0                       # Table walker requests started/completed, data/inst
system.cpu.itb.walker.walkRequestOrigin_Requested::Inst            0                       # Table walker requests started/completed, data/inst
system.cpu.itb.walker.walkRequestOrigin_Requested::total            0                       # Table walker requests started/completed, data/inst
system.cpu.itb.walker.walkRequestOrigin_Completed::Data            0                       # Table walker requests started/completed, data/inst
system.cpu.itb.walker.walkRequestOrigin_Completed::Inst            0                       # Table walker requests started/completed, data/inst
system.cpu.itb.walker.walkRequestOrigin_Completed::total            0                       # Table walker requests started/completed, data/inst
system.cpu.itb.walker.walkRequestOrigin::total            0                       # Table walker requests started/completed, data/inst
system.cpu.itb.walker.walks                         0                       # Table walker walks requested
system.cpu.itb.write_accesses                       0                       # DTB write accesses
system.cpu.itb.write_hits                           0                       # DTB write hits
system.cpu.itb.write_misses                         0                       # DTB write misses
system.cpu.memDep0.conflictingLoads              2623                       # Number of conflicting loads.
system.cpu.memDep0.conflictingStores             2522                       # Number of conflicting stores.
system.cpu.memDep0.insertedLoads              3096249                       # Number of loads inserted to the mem dependence unit.
system.cpu.memDep0.insertedStores             1554771                       # Number of stores inserted to the mem dependence unit.
system.cpu.misc_regfile_reads                 8479486                       # number of misc regfile reads
system.cpu.misc_regfile_writes                     65                       # number of misc regfile writes
system.cpu.numCycles                         19015927                       # number of cpu cycles simulated
system.cpu.numWorkItemsCompleted                    0                       # number of work items this cpu completed
system.cpu.numWorkItemsStarted                      0                       # number of work items this cpu started
system.cpu.rename.BlockCycles                12515886                       # Number of cycles rename is blocking
system.cpu.rename.CommittedMaps              11474659                       # Number of HB maps that are committed
system.cpu.rename.IQFullEvents                 349449                       # Number of times rename has blocked due to IQ full
system.cpu.rename.IdleCycles                   634105                       # Number of cycles rename is idle
system.cpu.rename.LQFullEvents                 569508                       # Number of times rename has blocked due to LQ full
system.cpu.rename.ROBFullEvents                   226                       # Number of times rename has blocked due to ROB full
system.cpu.rename.RenameLookups              18410753                       # Number of register rename lookups that rename has made
system.cpu.rename.RenamedInsts               10621957                       # Number of instructions processed by rename
system.cpu.rename.RenamedOperands            12180059                       # Number of destination operands rename has renamed
system.cpu.rename.RunCycles                   1402367                       # Number of cycles rename is running
system.cpu.rename.SQFullEvents                3557348                       # Number of times rename has blocked due to SQ full
system.cpu.rename.SquashCycles                   5807                       # Number of cycles rename is squashing
system.cpu.rename.UnblockCycles               4422557                       # Number of cycles rename is unblocking
system.cpu.rename.UndoneMaps                   705355                       # Number of HB maps that are undone due to squashing
system.cpu.rename.int_rename_lookups         13717846                       # Number of integer rename lookups
system.cpu.rename.serializeStallCycles           4418                       # count of cycles rename stalled for serializing inst
system.cpu.rename.serializingInsts                102                       # count of serializing insts renamed
system.cpu.rename.skidInsts                   1606168                       # count of insts added to the skid buffer
system.cpu.rename.tempSerializingInsts             32                       # count of temporary serializing insts renamed
system.cpu.rename.vec_rename_lookups              632                       # Number of vector rename lookups
system.cpu.rob.rob_reads                     28671594                       # The number of ROB reads
system.cpu.rob.rob_writes                    21317257                       # The number of ROB writes
system.cpu.timesIdled                             334                       # Number of times that the entire CPU went into an idle state and unscheduled itself
system.cpu.vec_regfile_reads                      372                       # number of vector regfile reads
system.cpu.vec_regfile_writes                      92                       # number of vector regfile writes
system.cpu.workload.numSyscalls                     9                       # Number of system calls
system.membus.snoop_filter.hit_multi_requests            0                       # Number of requests hitting in the snoop filter with multiple (>1) holders of the requested data.
system.membus.snoop_filter.hit_multi_snoops            0                       # Number of snoops hitting in the snoop filter with multiple (>1) holders of the requested data.
system.membus.snoop_filter.hit_single_requests       296800                       # Number of requests hitting in the snoop filter with a single holder of the requested data.
system.membus.snoop_filter.hit_single_snoops            0                       # Number of snoops hitting in the snoop filter with a single holder of the requested data.
system.membus.snoop_filter.tot_requests        626497                       # Total number of requests made to the snoop filter.
system.membus.snoop_filter.tot_snoops               0                       # Total number of snoops made to the snoop filter.
system.tol2bus.snoop_filter.hit_multi_requests            1                       # Number of requests hitting in the snoop filter with multiple (>1) holders of the requested data.
system.tol2bus.snoop_filter.hit_multi_snoops            0                       # Number of snoops hitting in the snoop filter with multiple (>1) holders of the requested data.
system.tol2bus.snoop_filter.hit_single_requests       328662                       # Number of requests hitting in the snoop filter with a single holder of the requested data.
system.tol2bus.snoop_filter.hit_single_snoops          133                       # Number of snoops hitting in the snoop filter with a single holder of the requested data.
system.tol2bus.snoop_filter.tot_requests       658477                       # Total number of requests made to the snoop filter.
system.tol2bus.snoop_filter.tot_snoops            133                       # Total number of snoops made to the snoop filter.
system.membus.trans_dist::ReadResp                475                       # Transaction distribution
system.membus.trans_dist::WritebackDirty       296472                       # Transaction distribution
system.membus.trans_dist::CleanEvict              328                       # Transaction distribution
system.membus.trans_dist::ReadExReq            326397                       # Transaction distribution
system.membus.trans_dist::ReadExResp           326397                       # Transaction distribution
system.membus.trans_dist::ReadSharedReq           475                       # Transaction distribution
system.membus.trans_dist::InvalidateReq          2825                       # Transaction distribution
system.membus.pkt_count_system.l2.mem_side::system.mem_ctrls.port       953369                       # Packet count per connected master and slave (bytes)
system.membus.pkt_count::total                 953369                       # Packet count per connected master and slave (bytes)
system.membus.pkt_size_system.l2.mem_side::system.mem_ctrls.port     39894016                       # Cumulative packet size per connected master and slave (bytes)
system.membus.pkt_size::total                39894016                       # Cumulative packet size per connected master and slave (bytes)
system.membus.snoops                                0                       # Total snoops (count)
system.membus.snoopTraffic                          0                       # Total snoop traffic (bytes)
system.membus.snoop_fanout::samples            329697                       # Request fanout histogram
system.membus.snoop_fanout::mean                    0                       # Request fanout histogram
system.membus.snoop_fanout::stdev                   0                       # Request fanout histogram
system.membus.snoop_fanout::underflows              0      0.00%      0.00% # Request fanout histogram
system.membus.snoop_fanout::0                  329697    100.00%    100.00% # Request fanout histogram
system.membus.snoop_fanout::1                       0      0.00%    100.00% # Request fanout histogram
system.membus.snoop_fanout::overflows               0      0.00%    100.00% # Request fanout histogram
system.membus.snoop_fanout::min_value               0                       # Request fanout histogram
system.membus.snoop_fanout::max_value               0                       # Request fanout histogram
system.membus.snoop_fanout::total              329697                       # Request fanout histogram
system.membus.reqLayer0.occupancy          1903584500                       # Layer occupancy (ticks)
system.membus.reqLayer0.utilization              20.0                       # Layer utilization (%)
system.membus.respLayer1.occupancy         1701054250                       # Layer occupancy (ticks)
system.membus.respLayer1.utilization             17.9                       # Layer utilization (%)
system.membus.power_state.pwrStateResidencyTicks::UNDEFINED   9507963000                       # Cumulative time (in ticks) in various power states
system.tol2bus.trans_dist::ReadResp               577                       # Transaction distribution
system.tol2bus.trans_dist::WritebackDirty       624728                       # Transaction distribution
system.tol2bus.trans_dist::WritebackClean          326                       # Transaction distribution
system.tol2bus.trans_dist::CleanEvict             540                       # Transaction distribution
system.tol2bus.trans_dist::ReadExReq           326412                       # Transaction distribution
system.tol2bus.trans_dist::ReadExResp          326411                       # Transaction distribution
system.tol2bus.trans_dist::ReadCleanReq           454                       # Transaction distribution
system.tol2bus.trans_dist::ReadSharedReq          123                       # Transaction distribution
system.tol2bus.trans_dist::InvalidateReq         2826                       # Transaction distribution
system.tol2bus.trans_dist::InvalidateResp         2826                       # Transaction distribution
system.tol2bus.pkt_count_system.cpu.icache.mem_side::system.l2.cpu_side         1234                       # Packet count per connected master and slave (bytes)
system.tol2bus.pkt_count_system.cpu.dcache.mem_side::system.l2.cpu_side       987057                       # Packet count per connected master and slave (bytes)
system.tol2bus.pkt_count::total                988291                       # Packet count per connected master and slave (bytes)
system.tol2bus.pkt_size_system.cpu.icache.mem_side::system.l2.cpu_side        49920                       # Cumulative packet size per connected master and slave (bytes)
system.tol2bus.pkt_size_system.cpu.dcache.mem_side::system.l2.cpu_side     41906560                       # Cumulative packet size per connected master and slave (bytes)
system.tol2bus.pkt_size::total               41956480                       # Cumulative packet size per connected master and slave (bytes)
system.tol2bus.snoops                          296932                       # Total snoops (count)
system.tol2bus.snoopTraffic                  18974208                       # Total snoop traffic (bytes)
system.tol2bus.snoop_fanout::samples           626747                       # Request fanout histogram
system.tol2bus.snoop_fanout::mean            0.000214                       # Request fanout histogram
system.tol2bus.snoop_fanout::stdev           0.014620                       # Request fanout histogram
system.tol2bus.snoop_fanout::underflows             0      0.00%      0.00% # Request fanout histogram
system.tol2bus.snoop_fanout::0                 626613     99.98%     99.98% # Request fanout histogram
system.tol2bus.snoop_fanout::1                    134      0.02%    100.00% # Request fanout histogram
system.tol2bus.snoop_fanout::2                      0      0.00%    100.00% # Request fanout histogram
system.tol2bus.snoop_fanout::overflows              0      0.00%    100.00% # Request fanout histogram
system.tol2bus.snoop_fanout::min_value              0                       # Request fanout histogram
system.tol2bus.snoop_fanout::max_value              1                       # Request fanout histogram
system.tol2bus.snoop_fanout::total             626747                       # Request fanout histogram
system.tol2bus.reqLayer0.occupancy          657820500                       # Layer occupancy (ticks)
system.tol2bus.reqLayer0.utilization              6.9                       # Layer utilization (%)
system.tol2bus.respLayer1.occupancy         491214000                       # Layer occupancy (ticks)
system.tol2bus.respLayer1.utilization             5.2                       # Layer utilization (%)
system.tol2bus.respLayer0.occupancy            681499                       # Layer occupancy (ticks)
system.tol2bus.respLayer0.utilization             0.0                       # Layer utilization (%)
system.tol2bus.power_state.pwrStateResidencyTicks::UNDEFINED   9507963000                       # Cumulative time (in ticks) in various power states
system.voltage_domain.voltage                       1                       # Voltage in Volts
system.clk_domain.clock                          1000                       # Clock period in ticks
system.l2.demand_hits::.cpu.inst                   71                       # number of demand (read+write) hits
system.l2.demand_hits::.cpu.data                   45                       # number of demand (read+write) hits
system.l2.demand_hits::total                      116                       # number of demand (read+write) hits
system.l2.overall_hits::.cpu.inst                  71                       # number of overall hits
system.l2.overall_hits::.cpu.data                  45                       # number of overall hits
system.l2.overall_hits::total                     116                       # number of overall hits
system.l2.demand_misses::.cpu.inst                383                       # number of demand (read+write) misses
system.l2.demand_misses::.cpu.data             326490                       # number of demand (read+write) misses
system.l2.demand_misses::total                 326873                       # number of demand (read+write) misses
system.l2.overall_misses::.cpu.inst               383                       # number of overall misses
system.l2.overall_misses::.cpu.data            326490                       # number of overall misses
system.l2.overall_misses::total                326873                       # number of overall misses
system.l2.demand_miss_latency::.cpu.inst     31623500                       # number of demand (read+write) miss cycles
system.l2.demand_miss_latency::.cpu.data  35076811000                       # number of demand (read+write) miss cycles
system.l2.demand_miss_latency::total      35108434500                       # number of demand (read+write) miss cycles
system.l2.overall_miss_latency::.cpu.inst     31623500                       # number of overall miss cycles
system.l2.overall_miss_latency::.cpu.data  35076811000                       # number of overall miss cycles
system.l2.overall_miss_latency::total     35108434500                       # number of overall miss cycles
system.l2.demand_accesses::.cpu.inst              454                       # number of demand (read+write) accesses
system.l2.demand_accesses::.cpu.data           326535                       # number of demand (read+write) accesses
system.l2.demand_accesses::total               326989                       # number of demand (read+write) accesses
system.l2.overall_accesses::.cpu.inst             454                       # number of overall (read+write) accesses
system.l2.overall_accesses::.cpu.data          326535                       # number of overall (read+write) accesses
system.l2.overall_accesses::total              326989                       # number of overall (read+write) accesses
system.l2.demand_miss_rate::.cpu.inst        0.843612                       # miss rate for demand accesses
system.l2.demand_miss_rate::.cpu.data        0.999862                       # miss rate for demand accesses
system.l2.demand_miss_rate::total            0.999645                       # miss rate for demand accesses
system.l2.overall_miss_rate::.cpu.inst       0.843612                       # miss rate for overall accesses
system.l2.overall_miss_rate::.cpu.data       0.999862                       # miss rate for overall accesses
system.l2.overall_miss_rate::total           0.999645                       # miss rate for overall accesses
system.l2.demand_avg_miss_latency::.cpu.inst 82567.885117                       # average overall miss latency
system.l2.demand_avg_miss_latency::.cpu.data 107436.096052                       # average overall miss latency
system.l2.demand_avg_miss_latency::total 107406.957748                       # average overall miss latency
system.l2.overall_avg_miss_latency::.cpu.inst 82567.885117                       # average overall miss latency
system.l2.overall_avg_miss_latency::.cpu.data 107436.096052                       # average overall miss latency
system.l2.overall_avg_miss_latency::total 107406.957748                       # average overall miss latency
system.l2.blocked_cycles::no_mshrs                  0                       # number of cycles access was blocked
system.l2.blocked_cycles::no_targets                0                       # number of cycles access was blocked
system.l2.blocked::no_mshrs                         0                       # number of cycles access was blocked
system.l2.blocked::no_targets                       0                       # number of cycles access was blocked
system.l2.avg_blocked_cycles::no_mshrs            nan                       # average number of cycles each access was blocked
system.l2.avg_blocked_cycles::no_targets          nan                       # average number of cycles each access was blocked
system.l2.writebacks::.writebacks              296472                       # number of writebacks
system.l2.writebacks::total                    296472                       # number of writebacks
system.l2.demand_mshr_misses::.cpu.inst           383                       # number of demand (read+write) MSHR misses
system.l2.demand_mshr_misses::.cpu.data        326490                       # number of demand (read+write) MSHR misses
system.l2.demand_mshr_misses::total            326873                       # number of demand (read+write) MSHR misses
system.l2.overall_mshr_misses::.cpu.inst          383                       # number of overall MSHR misses
system.l2.overall_mshr_misses::.cpu.data       326490                       # number of overall MSHR misses
system.l2.overall_mshr_misses::total           326873                       # number of overall MSHR misses
system.l2.demand_mshr_miss_latency::.cpu.inst     27793500                       # number of demand (read+write) MSHR miss cycles
system.l2.demand_mshr_miss_latency::.cpu.data  31811921000                       # number of demand (read+write) MSHR miss cycles
system.l2.demand_mshr_miss_latency::total  31839714500                       # number of demand (read+write) MSHR miss cycles
system.l2.overall_mshr_miss_latency::.cpu.inst     27793500                       # number of overall MSHR miss cycles
system.l2.overall_mshr_miss_latency::.cpu.data  31811921000                       # number of overall MSHR miss cycles
system.l2.overall_mshr_miss_latency::total  31839714500                       # number of overall MSHR miss cycles
system.l2.demand_mshr_miss_rate::.cpu.inst     0.843612                       # mshr miss rate for demand accesses
system.l2.demand_mshr_miss_rate::.cpu.data     0.999862                       # mshr miss rate for demand accesses
system.l2.demand_mshr_miss_rate::total       0.999645                       # mshr miss rate for demand accesses
system.l2.overall_mshr_miss_rate::.cpu.inst     0.843612                       # mshr miss rate for overall accesses
system.l2.overall_mshr_miss_rate::.cpu.data     0.999862                       # mshr miss rate for overall accesses
system.l2.overall_mshr_miss_rate::total      0.999645                       # mshr miss rate for overall accesses
system.l2.demand_avg_mshr_miss_latency::.cpu.inst 72567.885117                       # average overall mshr miss latency
system.l2.demand_avg_mshr_miss_latency::.cpu.data 97436.126681                       # average overall mshr miss latency
system.l2.demand_avg_mshr_miss_latency::total 97406.988341                       # average overall mshr miss latency
system.l2.overall_avg_mshr_miss_latency::.cpu.inst 72567.885117                       # average overall mshr miss latency
system.l2.overall_avg_mshr_miss_latency::.cpu.data 97436.126681                       # average overall mshr miss latency
system.l2.overall_avg_mshr_miss_latency::total 97406.988341                       # average overall mshr miss latency
system.l2.replacements                         296932                       # number of replacements
system.l2.WritebackDirty_hits::.writebacks       328256                       # number of WritebackDirty hits
system.l2.WritebackDirty_hits::total           328256                       # number of WritebackDirty hits
system.l2.WritebackDirty_accesses::.writebacks       328256                       # number of WritebackDirty accesses(hits+misses)
system.l2.WritebackDirty_accesses::total       328256                       # number of WritebackDirty accesses(hits+misses)
system.l2.WritebackClean_hits::.writebacks          326                       # number of WritebackClean hits
system.l2.WritebackClean_hits::total              326                       # number of WritebackClean hits
system.l2.WritebackClean_accesses::.writebacks          326                       # number of WritebackClean accesses(hits+misses)
system.l2.WritebackClean_accesses::total          326                       # number of WritebackClean accesses(hits+misses)
system.l2.CleanEvict_mshr_misses::.writebacks            1                       # number of CleanEvict MSHR misses
system.l2.CleanEvict_mshr_misses::total             1                       # number of CleanEvict MSHR misses
system.l2.CleanEvict_mshr_miss_rate::.writebacks          inf                       # mshr miss rate for CleanEvict accesses
system.l2.CleanEvict_mshr_miss_rate::total          inf                       # mshr miss rate for CleanEvict accesses
system.l2.ReadExReq_hits::.cpu.data                14                       # number of ReadExReq hits
system.l2.ReadExReq_hits::total                    14                       # number of ReadExReq hits
system.l2.ReadExReq_misses::.cpu.data          326398                       # number of ReadExReq misses
system.l2.ReadExReq_misses::total              326398                       # number of ReadExReq misses
system.l2.ReadExReq_miss_latency::.cpu.data  35068610000                       # number of ReadExReq miss cycles
system.l2.ReadExReq_miss_latency::total   35068610000                       # number of ReadExReq miss cycles
system.l2.ReadExReq_accesses::.cpu.data        326412                       # number of ReadExReq accesses(hits+misses)
system.l2.ReadExReq_accesses::total            326412                       # number of ReadExReq accesses(hits+misses)
system.l2.ReadExReq_miss_rate::.cpu.data     0.999957                       # miss rate for ReadExReq accesses
system.l2.ReadExReq_miss_rate::total         0.999957                       # miss rate for ReadExReq accesses
system.l2.ReadExReq_avg_miss_latency::.cpu.data 107441.252704                       # average ReadExReq miss latency
system.l2.ReadExReq_avg_miss_latency::total 107441.252704                       # average ReadExReq miss latency
system.l2.ReadExReq_mshr_misses::.cpu.data       326398                       # number of ReadExReq MSHR misses
system.l2.ReadExReq_mshr_misses::total         326398                       # number of ReadExReq MSHR misses
system.l2.ReadExReq_mshr_miss_latency::.cpu.data  31804640000                       # number of ReadExReq MSHR miss cycles
system.l2.ReadExReq_mshr_miss_latency::total  31804640000                       # number of ReadExReq MSHR miss cycles
system.l2.ReadExReq_mshr_miss_rate::.cpu.data     0.999957                       # mshr miss rate for ReadExReq accesses
system.l2.ReadExReq_mshr_miss_rate::total     0.999957                       # mshr miss rate for ReadExReq accesses
system.l2.ReadExReq_avg_mshr_miss_latency::.cpu.data 97441.283341                       # average ReadExReq mshr miss latency
system.l2.ReadExReq_avg_mshr_miss_latency::total 97441.283341                       # average ReadExReq mshr miss latency
system.l2.ReadCleanReq_hits::.cpu.inst             71                       # number of ReadCleanReq hits
system.l2.ReadCleanReq_hits::total                 71                       # number of ReadCleanReq hits
system.l2.ReadCleanReq_misses::.cpu.inst          383                       # number of ReadCleanReq misses
system.l2.ReadCleanReq_misses::total              383                       # number of ReadCleanReq misses
system.l2.ReadCleanReq_miss_latency::.cpu.inst     31623500                       # number of ReadCleanReq miss cycles
system.l2.ReadCleanReq_miss_latency::total     31623500                       # number of ReadCleanReq miss cycles
system.l2.ReadCleanReq_accesses::.cpu.inst          454                       # number of ReadCleanReq accesses(hits+misses)
system.l2.ReadCleanReq_accesses::total            454                       # number of ReadCleanReq accesses(hits+misses)
system.l2.ReadCleanReq_miss_rate::.cpu.inst     0.843612                       # miss rate for ReadCleanReq accesses
system.l2.ReadCleanReq_miss_rate::total      0.843612                       # miss rate for ReadCleanReq accesses
system.l2.ReadCleanReq_avg_miss_latency::.cpu.inst 82567.885117                       # average ReadCleanReq miss latency
system.l2.ReadCleanReq_avg_miss_latency::total 82567.885117                       # average ReadCleanReq miss latency
system.l2.ReadCleanReq_mshr_misses::.cpu.inst          383                       # number of ReadCleanReq MSHR misses
[...]
system.cpu.icache.tags.occ_task_id_percent::1024            1                       # Percentage of cache occupancy per task id
system.cpu.icache.tags.tag_accesses           1371280                       # Number of tag accesses
system.cpu.icache.tags.data_accesses          1371280                       # Number of data accesses
system.cpu.icache.tags.power_state.pwrStateResidencyTicks::UNDEFINED   9507963000                       # Cumulative time (in ticks) in various power states
system.cpu.dtb.walker.power_state.pwrStateResidencyTicks::UNDEFINED   9507963000                       # Cumulative time (in ticks) in various power states
system.cpu.dtb.stage2_mmu.stage2_tlb.walker.power_state.pwrStateResidencyTicks::UNDEFINED   9507963000                       # Cumulative time (in ticks) in various power states
system.cpu.itb.walker.power_state.pwrStateResidencyTicks::UNDEFINED   9507963000                       # Cumulative time (in ticks) in various power states
system.cpu.itb.stage2_mmu.stage2_tlb.walker.power_state.pwrStateResidencyTicks::UNDEFINED   9507963000                       # Cumulative time (in ticks) in various power states
system.cpu.dcache.demand_hits::.cpu.data      3101071                       # number of demand (read+write) hits
system.cpu.dcache.demand_hits::total          3101071                       # number of demand (read+write) hits
system.cpu.dcache.overall_hits::.cpu.data      3101075                       # number of overall hits
system.cpu.dcache.overall_hits::total         3101075                       # number of overall hits
system.cpu.dcache.demand_misses::.cpu.data      1460804                       # number of demand (read+write) misses
system.cpu.dcache.demand_misses::total        1460804                       # number of demand (read+write) misses
system.cpu.dcache.overall_misses::.cpu.data      1460807                       # number of overall misses
system.cpu.dcache.overall_misses::total       1460807                       # number of overall misses
system.cpu.dcache.demand_miss_latency::.cpu.data 130177938535                       # number of demand (read+write) miss cycles
system.cpu.dcache.demand_miss_latency::total 130177938535                       # number of demand (read+write) miss cycles
system.cpu.dcache.overall_miss_latency::.cpu.data 130177938535                       # number of overall miss cycles
system.cpu.dcache.overall_miss_latency::total 130177938535                       # number of overall miss cycles
system.cpu.dcache.demand_accesses::.cpu.data      4561875                       # number of demand (read+write) accesses
system.cpu.dcache.demand_accesses::total      4561875                       # number of demand (read+write) accesses
system.cpu.dcache.overall_accesses::.cpu.data      4561882                       # number of overall (read+write) accesses
system.cpu.dcache.overall_accesses::total      4561882                       # number of overall (read+write) accesses
system.cpu.dcache.demand_miss_rate::.cpu.data     0.320220                       # miss rate for demand accesses
system.cpu.dcache.demand_miss_rate::total     0.320220                       # miss rate for demand accesses
system.cpu.dcache.overall_miss_rate::.cpu.data     0.320220                       # miss rate for overall accesses
system.cpu.dcache.overall_miss_rate::total     0.320220                       # miss rate for overall accesses
system.cpu.dcache.demand_avg_miss_latency::.cpu.data 89113.897919                       # average overall miss latency
system.cpu.dcache.demand_avg_miss_latency::total 89113.897919                       # average overall miss latency
system.cpu.dcache.overall_avg_miss_latency::.cpu.data 89113.714909                       # average overall miss latency
system.cpu.dcache.overall_avg_miss_latency::total 89113.714909                       # average overall miss latency
system.cpu.dcache.blocked_cycles::no_mshrs     16270817                       # number of cycles access was blocked
system.cpu.dcache.blocked_cycles::no_targets           30                       # number of cycles access was blocked
system.cpu.dcache.blocked::no_mshrs            221551                       # number of cycles access was blocked
system.cpu.dcache.blocked::no_targets               1                       # number of cycles access was blocked
system.cpu.dcache.avg_blocked_cycles::no_mshrs    73.440504                       # average number of cycles each access was blocked
system.cpu.dcache.avg_blocked_cycles::no_targets           30                       # average number of cycles each access was blocked
system.cpu.dcache.writebacks::.writebacks       328256                       # number of writebacks
system.cpu.dcache.writebacks::total            328256                       # number of writebacks
system.cpu.dcache.demand_mshr_hits::.cpu.data      1131446                       # number of demand (read+write) MSHR hits
system.cpu.dcache.demand_mshr_hits::total      1131446                       # number of demand (read+write) MSHR hits
system.cpu.dcache.overall_mshr_hits::.cpu.data      1131446                       # number of overall MSHR hits
system.cpu.dcache.overall_mshr_hits::total      1131446                       # number of overall MSHR hits
system.cpu.dcache.demand_mshr_misses::.cpu.data       329358                       # number of demand (read+write) MSHR misses
system.cpu.dcache.demand_mshr_misses::total       329358                       # number of demand (read+write) MSHR misses
system.cpu.dcache.overall_mshr_misses::.cpu.data       329361                       # number of overall MSHR misses
system.cpu.dcache.overall_mshr_misses::total       329361                       # number of overall MSHR misses
system.cpu.dcache.demand_mshr_miss_latency::.cpu.data  35829391984                       # number of demand (read+write) MSHR miss cycles
system.cpu.dcache.demand_mshr_miss_latency::total  35829391984                       # number of demand (read+write) MSHR miss cycles
system.cpu.dcache.overall_mshr_miss_latency::.cpu.data  35829661984                       # number of overall MSHR miss cycles
system.cpu.dcache.overall_mshr_miss_latency::total  35829661984                       # number of overall MSHR miss cycles
system.cpu.dcache.demand_mshr_miss_rate::.cpu.data     0.072198                       # mshr miss rate for demand accesses
system.cpu.dcache.demand_mshr_miss_rate::total     0.072198                       # mshr miss rate for demand accesses
system.cpu.dcache.overall_mshr_miss_rate::.cpu.data     0.072198                       # mshr miss rate for overall accesses
system.cpu.dcache.overall_mshr_miss_rate::total     0.072198                       # mshr miss rate for overall accesses
system.cpu.dcache.demand_avg_mshr_miss_latency::.cpu.data 108785.552451                       # average overall mshr miss latency
system.cpu.dcache.demand_avg_mshr_miss_latency::total 108785.552451                       # average overall mshr miss latency
system.cpu.dcache.overall_avg_mshr_miss_latency::.cpu.data 108785.381341                       # average overall mshr miss latency
system.cpu.dcache.overall_avg_mshr_miss_latency::total 108785.381341                       # average overall mshr miss latency
system.cpu.dcache.replacements                 328336                       # number of replacements
system.cpu.dcache.ReadReq_hits::.cpu.data      3094645                       # number of ReadReq hits
system.cpu.dcache.ReadReq_hits::total         3094645                       # number of ReadReq hits
system.cpu.dcache.ReadReq_misses::.cpu.data          339                       # number of ReadReq misses
system.cpu.dcache.ReadReq_misses::total           339                       # number of ReadReq misses
system.cpu.dcache.ReadReq_miss_latency::.cpu.data     16700000                       # number of ReadReq miss cycles
system.cpu.dcache.ReadReq_miss_latency::total     16700000                       # number of ReadReq miss cycles
system.cpu.dcache.ReadReq_accesses::.cpu.data      3094984                       # number of ReadReq accesses(hits+misses)
system.cpu.dcache.ReadReq_accesses::total      3094984                       # number of ReadReq accesses(hits+misses)
system.cpu.dcache.ReadReq_miss_rate::.cpu.data     0.000110                       # miss rate for ReadReq accesses
system.cpu.dcache.ReadReq_miss_rate::total     0.000110                       # miss rate for ReadReq accesses
system.cpu.dcache.ReadReq_avg_miss_latency::.cpu.data 49262.536873                       # average ReadReq miss latency
system.cpu.dcache.ReadReq_avg_miss_latency::total 49262.536873                       # average ReadReq miss latency
system.cpu.dcache.ReadReq_mshr_hits::.cpu.data          219                       # number of ReadReq MSHR hits
system.cpu.dcache.ReadReq_mshr_hits::total          219                       # number of ReadReq MSHR hits
system.cpu.dcache.ReadReq_mshr_misses::.cpu.data          120                       # number of ReadReq MSHR misses
system.cpu.dcache.ReadReq_mshr_misses::total          120                       # number of ReadReq MSHR misses
system.cpu.dcache.ReadReq_mshr_miss_latency::.cpu.data      8455500                       # number of ReadReq MSHR miss cycles
system.cpu.dcache.ReadReq_mshr_miss_latency::total      8455500                       # number of ReadReq MSHR miss cycles
system.cpu.dcache.ReadReq_mshr_miss_rate::.cpu.data     0.000039                       # mshr miss rate for ReadReq accesses
system.cpu.dcache.ReadReq_mshr_miss_rate::total     0.000039                       # mshr miss rate for ReadReq accesses
system.cpu.dcache.ReadReq_avg_mshr_miss_latency::.cpu.data 70462.500000                       # average ReadReq mshr miss latency
system.cpu.dcache.ReadReq_avg_mshr_miss_latency::total 70462.500000                       # average ReadReq mshr miss latency
system.cpu.dcache.WriteReq_hits::.cpu.data         6426                       # number of WriteReq hits
system.cpu.dcache.WriteReq_hits::total           6426                       # number of WriteReq hits
system.cpu.dcache.WriteReq_misses::.cpu.data      1457642                       # number of WriteReq misses
system.cpu.dcache.WriteReq_misses::total      1457642                       # number of WriteReq misses
system.cpu.dcache.WriteReq_miss_latency::.cpu.data 130068993045                       # number of WriteReq miss cycles
system.cpu.dcache.WriteReq_miss_latency::total 130068993045                       # number of WriteReq miss cycles
system.cpu.dcache.WriteReq_accesses::.cpu.data      1464068                       # number of WriteReq accesses(hits+misses)
system.cpu.dcache.WriteReq_accesses::total      1464068                       # number of WriteReq accesses(hits+misses)
system.cpu.dcache.WriteReq_miss_rate::.cpu.data     0.995611                       # miss rate for WriteReq accesses
system.cpu.dcache.WriteReq_miss_rate::total     0.995611                       # miss rate for WriteReq accesses
system.cpu.dcache.WriteReq_avg_miss_latency::.cpu.data 89232.467948                       # average WriteReq miss latency
system.cpu.dcache.WriteReq_avg_miss_latency::total 89232.467948                       # average WriteReq miss latency
system.cpu.dcache.WriteReq_mshr_hits::.cpu.data      1131227                       # number of WriteReq MSHR hits
system.cpu.dcache.WriteReq_mshr_hits::total      1131227                       # number of WriteReq MSHR hits
system.cpu.dcache.WriteReq_mshr_misses::.cpu.data       326415                       # number of WriteReq MSHR misses
system.cpu.dcache.WriteReq_mshr_misses::total       326415                       # number of WriteReq MSHR misses
system.cpu.dcache.WriteReq_mshr_miss_latency::.cpu.data  35731513994                       # number of WriteReq MSHR miss cycles
system.cpu.dcache.WriteReq_mshr_miss_latency::total  35731513994                       # number of WriteReq MSHR miss cycles
system.cpu.dcache.WriteReq_mshr_miss_rate::.cpu.data     0.222951                       # mshr miss rate for WriteReq accesses
system.cpu.dcache.WriteReq_mshr_miss_rate::total     0.222951                       # mshr miss rate for WriteReq accesses
system.cpu.dcache.WriteReq_avg_mshr_miss_latency::.cpu.data 109466.519596                       # average WriteReq mshr miss latency
system.cpu.dcache.WriteReq_avg_mshr_miss_latency::total 109466.519596                       # average WriteReq mshr miss latency
system.cpu.dcache.SoftPFReq_hits::.cpu.data            4                       # number of SoftPFReq hits
system.cpu.dcache.SoftPFReq_hits::total             4                       # number of SoftPFReq hits
system.cpu.dcache.SoftPFReq_misses::.cpu.data            3                       # number of SoftPFReq misses
system.cpu.dcache.SoftPFReq_misses::total            3                       # number of SoftPFReq misses
system.cpu.dcache.SoftPFReq_accesses::.cpu.data            7                       # number of SoftPFReq accesses(hits+misses)
system.cpu.dcache.SoftPFReq_accesses::total            7                       # number of SoftPFReq accesses(hits+misses)
system.cpu.dcache.SoftPFReq_miss_rate::.cpu.data     0.428571                       # miss rate for SoftPFReq accesses
system.cpu.dcache.SoftPFReq_miss_rate::total     0.428571                       # miss rate for SoftPFReq accesses
system.cpu.dcache.SoftPFReq_mshr_misses::.cpu.data            3                       # number of SoftPFReq MSHR misses
system.cpu.dcache.SoftPFReq_mshr_misses::total            3                       # number of SoftPFReq MSHR misses
system.cpu.dcache.SoftPFReq_mshr_miss_latency::.cpu.data       270000                       # number of SoftPFReq MSHR miss cycles
system.cpu.dcache.SoftPFReq_mshr_miss_latency::total       270000                       # number of SoftPFReq MSHR miss cycles
system.cpu.dcache.SoftPFReq_mshr_miss_rate::.cpu.data     0.428571                       # mshr miss rate for SoftPFReq accesses
system.cpu.dcache.SoftPFReq_mshr_miss_rate::total     0.428571                       # mshr miss rate for SoftPFReq accesses
system.cpu.dcache.SoftPFReq_avg_mshr_miss_latency::.cpu.data        90000                       # average SoftPFReq mshr miss latency
system.cpu.dcache.SoftPFReq_avg_mshr_miss_latency::total        90000                       # average SoftPFReq mshr miss latency
system.cpu.dcache.WriteLineReq_misses::.cpu.data         2823                       # number of WriteLineReq misses
system.cpu.dcache.WriteLineReq_misses::total         2823                       # number of WriteLineReq misses
system.cpu.dcache.WriteLineReq_miss_latency::.cpu.data     92245490                       # number of WriteLineReq miss cycles
system.cpu.dcache.WriteLineReq_miss_latency::total     92245490                       # number of WriteLineReq miss cycles
system.cpu.dcache.WriteLineReq_accesses::.cpu.data         2823                       # number of WriteLineReq accesses(hits+misses)
system.cpu.dcache.WriteLineReq_accesses::total         2823                       # number of WriteLineReq accesses(hits+misses)
system.cpu.dcache.WriteLineReq_miss_rate::.cpu.data            1                       # miss rate for WriteLineReq accesses
system.cpu.dcache.WriteLineReq_miss_rate::total            1                       # miss rate for WriteLineReq accesses
system.cpu.dcache.WriteLineReq_avg_miss_latency::.cpu.data 32676.404534                       # average WriteLineReq miss latency
system.cpu.dcache.WriteLineReq_avg_miss_latency::total 32676.404534                       # average WriteLineReq miss latency
system.cpu.dcache.WriteLineReq_mshr_misses::.cpu.data         2823                       # number of WriteLineReq MSHR misses
system.cpu.dcache.WriteLineReq_mshr_misses::total         2823                       # number of WriteLineReq MSHR misses
system.cpu.dcache.WriteLineReq_mshr_miss_latency::.cpu.data     89422490                       # number of WriteLineReq MSHR miss cycles
system.cpu.dcache.WriteLineReq_mshr_miss_latency::total     89422490                       # number of WriteLineReq MSHR miss cycles
system.cpu.dcache.WriteLineReq_mshr_miss_rate::.cpu.data            1                       # mshr miss rate for WriteLineReq accesses
system.cpu.dcache.WriteLineReq_mshr_miss_rate::total            1                       # mshr miss rate for WriteLineReq accesses
system.cpu.dcache.WriteLineReq_avg_mshr_miss_latency::.cpu.data 31676.404534                       # average WriteLineReq mshr miss latency
system.cpu.dcache.WriteLineReq_avg_mshr_miss_latency::total 31676.404534                       # average WriteLineReq mshr miss latency
system.cpu.dcache.LoadLockedReq_hits::.cpu.data           18                       # number of LoadLockedReq hits
system.cpu.dcache.LoadLockedReq_hits::total           18                       # number of LoadLockedReq hits
system.cpu.dcache.LoadLockedReq_accesses::.cpu.data           18                       # number of LoadLockedReq accesses(hits+misses)
system.cpu.dcache.LoadLockedReq_accesses::total           18                       # number of LoadLockedReq accesses(hits+misses)
system.cpu.dcache.StoreCondReq_hits::.cpu.data           16                       # number of StoreCondReq hits
system.cpu.dcache.StoreCondReq_hits::total           16                       # number of StoreCondReq hits
system.cpu.dcache.StoreCondReq_accesses::.cpu.data           16                       # number of StoreCondReq accesses(hits+misses)
system.cpu.dcache.StoreCondReq_accesses::total           16                       # number of StoreCondReq accesses(hits+misses)
system.cpu.dcache.power_state.pwrStateResidencyTicks::UNDEFINED   9507963000                       # Cumulative time (in ticks) in various power states
system.cpu.dcache.tags.tagsinuse          1021.646752                       # Cycle average of tags in use
system.cpu.dcache.tags.total_refs             3430469                       # Total number of references to valid blocks.
system.cpu.dcache.tags.sampled_refs            329360                       # Sample count of references to valid blocks.
system.cpu.dcache.tags.avg_refs             10.415560                       # Average number of references to valid blocks.
system.cpu.dcache.tags.warmup_cycle            176500                       # Cycle when the warmup percentage was hit.
system.cpu.dcache.tags.occ_blocks::.cpu.data  1021.646752                       # Average occupied blocks per requestor
system.cpu.dcache.tags.occ_percent::.cpu.data     0.997702                       # Average percentage of cache occupancy
system.cpu.dcache.tags.occ_percent::total     0.997702                       # Average percentage of cache occupancy
system.cpu.dcache.tags.occ_task_id_blocks::1024         1024                       # Occupied blocks per task id
system.cpu.dcache.tags.age_task_id_blocks_1024::0          322                       # Occupied blocks per task id
system.cpu.dcache.tags.age_task_id_blocks_1024::1          701                       # Occupied blocks per task id
system.cpu.dcache.tags.age_task_id_blocks_1024::3            1                       # Occupied blocks per task id
system.cpu.dcache.tags.occ_task_id_percent::1024            1                       # Percentage of cache occupancy per task id
system.cpu.dcache.tags.tag_accesses           9453192                       # Number of tag accesses
system.cpu.dcache.tags.data_accesses          9453192                       # Number of data accesses
system.cpu.dcache.tags.power_state.pwrStateResidencyTicks::UNDEFINED   9507963000                       # Cumulative time (in ticks) in various power states
system.cpu.power_state.pwrStateResidencyTicks::ON   9507963000                       # Cumulative time (in ticks) in various power states

---------- End Simulation Statistics   ----------
