
---------- Begin Simulation Statistics ----------
final_tick                                 1139173500                       # Number of ticks from beginning of simulation (restored from checkpoints and never reset)
host_inst_rate                                 333737                       # Simulator instruction rate (inst/s)
host_mem_usage                                 882196                       # Number of bytes of host memory used
host_op_rate                                   339054                       # Simulator op (including micro ops) rate (op/s)
host_seconds                                    29.96                       # Real time elapsed on the host
host_tick_rate                               38018229                       # Simulator tick rate (ticks/s)
sim_freq                                 1000000000000                       # Frequency of simulated ticks
sim_insts                                    10000002                       # Number of instructions simulated
sim_ops                                      10159353                       # Number of ops (including micro ops) simulated
sim_seconds                                  0.001139                       # Number of seconds simulated
sim_ticks                                  1139173500                       # Number of ticks simulated
system.cpu.branchPred.BTBCorrect                    0                       # Number of correct BTB predictions (this stat may not work properly.
system.cpu.branchPred.BTBHitPct             99.913704                       # BTB Hit Percentage
system.cpu.branchPred.BTBHits                 1258528                       # Number of BTB hits
system.cpu.branchPred.BTBLookups              1259615                       # Number of BTB lookups
system.cpu.branchPred.RASInCorrect                  0                       # Number of incorrect RAS predictions.
system.cpu.branchPred.condIncorrect              1940                       # Number of conditional branches incorrect
system.cpu.branchPred.condPredicted           1901847                       # Number of conditional branches predicted
system.cpu.branchPred.indirectHits                 17                       # Number of indirect target hits.
system.cpu.branchPred.indirectLookups             238                       # Number of indirect predictor lookups.
system.cpu.branchPred.indirectMisses              221                       # Number of indirect misses.
system.cpu.branchPred.lookups                 1938624                       # Number of BP lookups
system.cpu.branchPred.usedRAS                   11403                       # Number of times the RAS was used to get a target.
system.cpu.branchPredindirectMispredicted           57                       # Number of mispredicted indirect branches.
system.cpu.cc_regfile_reads                   5560983                       # number of cc regfile reads
system.cpu.cc_regfile_writes                  5579025                       # number of cc regfile writes
system.cpu.commit.amos                              0                       # Number of atomic instructions committed
system.cpu.commit.branchMispredicts              1572                       # The number of times a branch was mispredicted
system.cpu.commit.branches                    1922758                       # Number of branches committed
system.cpu.commit.bw_lim_events                812871                       # number cycles where commit BW limit reached
system.cpu.commit.commitNonSpecStalls              56                       # The number of times commit has been forced to stall to communicate backwards
system.cpu.commit.commitSquashedInsts           42731                       # The number of squashed insts skipped by commit
system.cpu.commit.committedInsts             10000096                       # Number of instructions committed
system.cpu.commit.committedOps               10159447                       # Number of ops (including micro ops) committed
system.cpu.commit.committed_per_cycle::samples      2224002                       # Number of insts commited each cycle
system.cpu.commit.committed_per_cycle::mean     4.568093                       # Number of insts commited each cycle
system.cpu.commit.committed_per_cycle::stdev     3.274748                       # Number of insts commited each cycle
system.cpu.commit.committed_per_cycle::underflows            0      0.00%      0.00% # Number of insts commited each cycle
system.cpu.commit.committed_per_cycle::0       196094      8.82%      8.82% # Number of insts commited each cycle
system.cpu.commit.committed_per_cycle::1       484624     21.79%     30.61% # Number of insts commited each cycle
system.cpu.commit.committed_per_cycle::2       332793     14.96%     45.57% # Number of insts commited each cycle
system.cpu.commit.committed_per_cycle::3        34324      1.54%     47.11% # Number of insts commited each cycle
system.cpu.commit.committed_per_cycle::4        20130      0.91%     48.02% # Number of insts commited each cycle
system.cpu.commit.committed_per_cycle::5         2879      0.13%     48.15% # Number of insts commited each cycle
system.cpu.commit.committed_per_cycle::6        73627      3.31%     51.46% # Number of insts commited each cycle
system.cpu.commit.committed_per_cycle::7       266660     11.99%     63.45% # Number of insts commited each cycle
system.cpu.commit.committed_per_cycle::8       812871     36.55%    100.00% # Number of insts commited each cycle
system.cpu.commit.committed_per_cycle::overflows            0      0.00%    100.00% # Number of insts commited each cycle
system.cpu.commit.committed_per_cycle::min_value            0                       # Number of insts commited each cycle
system.cpu.commit.committed_per_cycle::max_value            8                       # Number of insts commited each cycle
system.cpu.commit.committed_per_cycle::total      2224002                       # Number of insts commited each cycle
system.cpu.commit.fp_insts                          0                       # Number of committed floating point instructions.
system.cpu.commit.function_calls                10907                       # Number of function calls committed.
system.cpu.commit.int_insts                   8219726                       # Number of committed integer instructions.
system.cpu.commit.loads                       2577573                       # Number of loads committed
system.cpu.commit.membars                          48                       # Number of memory barriers committed
system.cpu.commit.op_class_0::No_OpClass           10      0.00%      0.00% # Class of committed instruction
system.cpu.commit.op_class_0::IntAlu          6883583     67.76%     67.76% # Class of committed instruction
system.cpu.commit.op_class_0::IntMult            6246      0.06%     67.82% # Class of committed instruction
system.cpu.commit.op_class_0::IntDiv               14      0.00%     67.82% # Class of committed instruction
system.cpu.commit.op_class_0::FloatAdd           4094      0.04%     67.86% # Class of committed instruction
system.cpu.commit.op_class_0::FloatCmp          16376      0.16%     68.02% # Class of committed instruction
system.cpu.commit.op_class_0::FloatCvt           6163      0.06%     68.08% # Class of committed instruction
system.cpu.commit.op_class_0::FloatMult         22517      0.22%     68.30% # Class of committed instruction
system.cpu.commit.op_class_0::FloatMultAcc        22517      0.22%     68.52% # Class of committed instruction
system.cpu.commit.op_class_0::FloatDiv             22      0.00%     68.52% # Class of committed instruction
system.cpu.commit.op_class_0::FloatMisc          2070      0.02%     68.54% # Class of committed instruction
system.cpu.commit.op_class_0::FloatSqrt             0      0.00%     68.54% # Class of committed instruction
system.cpu.commit.op_class_0::SimdAdd              32      0.00%     68.54% # Class of committed instruction
system.cpu.commit.op_class_0::SimdAddAcc            0      0.00%     68.54% # Class of committed instruction
system.cpu.commit.op_class_0::SimdAlu              37      0.00%     68.54% # Class of committed instruction
system.cpu.commit.op_class_0::SimdCmp              40      0.00%     68.54% # Class of committed instruction
system.cpu.commit.op_class_0::SimdCvt               0      0.00%     68.54% # Class of committed instruction
system.cpu.commit.op_class_0::SimdMisc           2082      0.02%     68.56% # Class of committed instruction
system.cpu.commit.op_class_0::SimdMult              0      0.00%     68.56% # Class of committed instruction
system.cpu.commit.op_class_0::SimdMultAcc            0      0.00%     68.56% # Class of committed instruction
system.cpu.commit.op_class_0::SimdShift             0      0.00%     68.56% # Class of committed instruction
system.cpu.commit.op_class_0::SimdShiftAcc            0      0.00%     68.56% # Class of committed instruction
system.cpu.commit.op_class_0::SimdDiv               0      0.00%     68.56% # Class of committed instruction
system.cpu.commit.op_class_0::SimdSqrt              0      0.00%     68.56% # Class of committed instruction
system.cpu.commit.op_class_0::SimdFloatAdd            0      0.00%     68.56% # Class of committed instruction
system.cpu.commit.op_class_0::SimdFloatAlu            0      0.00%     68.56% # Class of committed instruction
system.cpu.commit.op_class_0::SimdFloatCmp            0      0.00%     68.56% # Class of committed instruction
system.cpu.commit.op_class_0::SimdFloatCvt            0      0.00%     68.56% # Class of committed instruction
system.cpu.commit.op_class_0::SimdFloatDiv            0      0.00%     68.56% # Class of committed instruction
system.cpu.commit.op_class_0::SimdFloatMisc            0      0.00%     68.56% # Class of committed instruction
system.cpu.commit.op_class_0::SimdFloatMult            0      0.00%     68.56% # Class of committed instruction
system.cpu.commit.op_class_0::SimdFloatMultAcc            0      0.00%     68.56% # Class of committed instruction
system.cpu.commit.op_class_0::SimdFloatSqrt            0      0.00%     68.56% # Class of committed instruction
system.cpu.commit.op_class_0::SimdReduceAdd            0      0.00%     68.56% # Class of committed instruction
system.cpu.commit.op_class_0::SimdReduceAlu            0      0.00%     68.56% # Class of committed instruction
system.cpu.commit.op_class_0::SimdReduceCmp            0      0.00%     68.56% # Class of committed instruction
system.cpu.commit.op_class_0::SimdFloatReduceAdd            0      0.00%     68.56% # Class of committed instruction
system.cpu.commit.op_class_0::SimdFloatReduceCmp            0      0.00%     68.56% # Class of committed instruction
system.cpu.commit.op_class_0::SimdAes               0      0.00%     68.56% # Class of committed instruction
system.cpu.commit.op_class_0::SimdAesMix            0      0.00%     68.56% # Class of committed instruction
system.cpu.commit.op_class_0::SimdSha1Hash            0      0.00%     68.56% # Class of committed instruction
system.cpu.commit.op_class_0::SimdSha1Hash2            0      0.00%     68.56% # Class of committed instruction
system.cpu.commit.op_class_0::SimdSha256Hash            0      0.00%     68.56% # Class of committed instruction
system.cpu.commit.op_class_0::SimdSha256Hash2            0      0.00%     68.56% # Class of committed instruction
system.cpu.commit.op_class_0::SimdShaSigma2            0      0.00%     68.56% # Class of committed instruction
system.cpu.commit.op_class_0::SimdShaSigma3            0      0.00%     68.56% # Class of committed instruction
system.cpu.commit.op_class_0::SimdPredAlu            0      0.00%     68.56% # Class of committed instruction
system.cpu.commit.op_class_0::MemRead         2577573     25.37%     93.94% # Class of committed instruction
system.cpu.commit.op_class_0::MemWrite         616071      6.06%    100.00% # Class of committed instruction
system.cpu.commit.op_class_0::FloatMemRead            0      0.00%    100.00% # Class of committed instruction
system.cpu.commit.op_class_0::FloatMemWrite            0      0.00%    100.00% # Class of committed instruction
system.cpu.commit.op_class_0::IprAccess             0      0.00%    100.00% # Class of committed instruction
system.cpu.commit.op_class_0::InstPrefetch            0      0.00%    100.00% # Class of committed instruction
system.cpu.commit.op_class_0::total          10159447                       # Class of committed instruction
system.cpu.commit.refs                        3193644                       # Number of memory references committed
system.cpu.commit.swp_count                         0                       # Number of s/w prefetches committed
system.cpu.commit.vec_insts                    147983                       # Number of committed Vector instructions.
system.cpu.committedInsts                    10000002                       # Number of Instructions Simulated
system.cpu.committedOps                      10159353                       # Number of Ops (including micro ops) Simulated
system.cpu.cpi                               0.227835                       # CPI: Cycles Per Instruction
system.cpu.cpi_total                         0.227835                       # CPI: Total CPI of All Threads
system.cpu.decode.BlockedCycles                124443                       # Number of cycles decode is blocked
system.cpu.decode.BranchMispred                   376                       # Number of times decode detected a branch misprediction
system.cpu.decode.BranchResolved              1257106                       # Number of times decode resolved a branch
system.cpu.decode.DecodedInsts               10222281                       # Number of instructions handled by decode
system.cpu.decode.IdleCycles                   343286                       # Number of cycles decode is idle
system.cpu.decode.RunCycles                   1697061                       # Number of cycles decode is running
system.cpu.decode.SquashCycles                   1630                       # Number of cycles decode is squashing
system.cpu.decode.SquashedInsts                  1362                       # Number of squashed instructions handled by decode
system.cpu.decode.UnblockCycles                 63833                       # Number of cycles decode is unblocking
system.cpu.dtb.accesses                             0                       # DTB accesses
system.cpu.dtb.align_faults                         0                       # Number of TLB faults due to alignment restrictions
system.cpu.dtb.domain_faults                        0                       # Number of TLB faults due to domain restrictions
system.cpu.dtb.flush_entries                        0                       # Number of entries that have been flushed from TLB
system.cpu.dtb.flush_tlb                            0                       # Number of times complete TLB was flushed
system.cpu.dtb.flush_tlb_asid                       0                       # Number of times TLB was flushed by ASID
system.cpu.dtb.flush_tlb_mva                        0                       # Number of times TLB was flushed by MVA
system.cpu.dtb.flush_tlb_mva_asid                   0                       # Number of times TLB was flushed by MVA & ASID
system.cpu.dtb.hits                                 0                       # DTB hits
system.cpu.dtb.inst_accesses                        0                       # ITB inst accesses
system.cpu.dtb.inst_hits                            0                       # ITB inst hits
system.cpu.dtb.inst_misses                          0                       # ITB inst misses
system.cpu.dtb.misses                               0                       # DTB misses
system.cpu.dtb.perms_faults                         0                       # Number of TLB faults due to permissions restrictions
system.cpu.dtb.prefetch_faults                      0                       # Number of TLB faults due to prefetch
system.cpu.dtb.read_accesses                        0                       # DTB read accesses
system.cpu.dtb.read_hits                            0                       # DTB read hits
system.cpu.dtb.read_misses                          0                       # DTB read misses
system.cpu.dtb.stage2_mmu.stage2_tlb.accesses            0                       # DTB accesses
system.cpu.dtb.stage2_mmu.stage2_tlb.align_faults            0                       # Number of TLB faults due to alignment restrictions
system.cpu.dtb.stage2_mmu.stage2_tlb.domain_faults            0                       # Number of TLB faults due to domain restrictions
system.cpu.dtb.stage2_mmu.stage2_tlb.flush_entries            0                       # Number of entries that have been flushed from TLB
system.cpu.dtb.stage2_mmu.stage2_tlb.flush_tlb            0                       # Number of times complete TLB was flushed
system.cpu.dtb.stage2_mmu.stage2_tlb.flush_tlb_asid            0                       # Number of times TLB was flushed by ASID
system.cpu.dtb.stage2_mmu.stage2_tlb.flush_tlb_mva            0                       # Number of times TLB was flushed by MVA
system.cpu.dtb.stage2_mmu.stage2_tlb.flush_tlb_mva_asid            0                       # Number of times TLB was flushed by MVA & ASID
system.cpu.dtb.stage2_mmu.stage2_tlb.hits            0                       # DTB hits
system.cpu.dtb.stage2_mmu.stage2_tlb.inst_accesses            0                       # ITB inst accesses
system.cpu.dtb.stage2_mmu.stage2_tlb.inst_hits            0                       # ITB inst hits
system.cpu.dtb.stage2_mmu.stage2_tlb.inst_misses            0                       # ITB inst misses
system.cpu.dtb.stage2_mmu.stage2_tlb.misses            0                       # DTB misses
system.cpu.dtb.stage2_mmu.stage2_tlb.perms_faults            0                       # Number of TLB faults due to permissions restrictions
system.cpu.dtb.stage2_mmu.stage2_tlb.prefetch_faults            0                       # Number of TLB faults due to prefetch
system.cpu.dtb.stage2_mmu.stage2_tlb.read_accesses            0                       # DTB read accesses
system.cpu.dtb.stage2_mmu.stage2_tlb.read_hits            0                       # DTB read hits
system.cpu.dtb.stage2_mmu.stage2_tlb.read_misses            0                       # DTB read misses
system.cpu.dtb.stage2_mmu.stage2_tlb.walker.walkRequestOrigin_Requested::Data            0                       # Table walker requests started/completed, data/inst
system.cpu.dtb.stage2_mmu.stage2_tlb.walker.walkRequestOrigin_Requested::Inst            0                       # Table walker requests started/completed, data/inst
system.cpu.dtb.stage2_mmu.stage2_tlb.walker.walkRequestOrigin_Requested::total            0                       # Table walker requests started/completed, data/inst
system.cpu.dtb.stage2_mmu.stage2_tlb.walker.walkRequestOrigin_Completed::Data            0                       # Table walker requests started/completed, data/inst
system.cpu.dtb.stage2_mmu.stage2_tlb.walker.walkRequestOrigin_Completed::Inst            0                       # Table walker requests started/completed, data/inst
system.cpu.dtb.stage2_mmu.stage2_tlb.walker.walkRequestOrigin_Completed::total            0                       # Table walker requests started/completed, data/inst
system.cpu.dtb.stage2_mmu.stage2_tlb.walker.walkRequestOrigin::total            0                       # Table walker requests started/completed, data/inst
system.cpu.dtb.stage2_mmu.stage2_tlb.walker.walks            0                       # Table walker walks requested
system.cpu.dtb.stage2_mmu.stage2_tlb.write_accesses            0                       # DTB write accesses
system.cpu.dtb.stage2_mmu.stage2_tlb.write_hits            0                       # DTB write hits
system.cpu.dtb.stage2_mmu.stage2_tlb.write_misses            0                       # DTB write misses
system.cpu.dtb.walker.walkRequestOrigin_Requested::Data            0                       # Table walker requests started/completed, data/inst
system.cpu.dtb.walker.walkRequestOrigin_Requested::Inst            0                       # Table walker requests started/completed, data/inst
system.cpu.dtb.walker.walkRequestOrigin_Requested::total            0                       # Table walker requests started/completed, data/inst
system.cpu.dtb.walker.walkRequestOrigin_Completed::Data            0                       # Table walker requests started/completed, data/inst
system.cpu.dtb.walker.walkRequestOrigin_Completed::Inst            0                       # Table walker requests started/completed, data/inst
system.cpu.dtb.walker.walkRequestOrigin_Completed::total            0                       # Table walker requests started/completed, data/inst
system.cpu.dtb.walker.walkRequestOrigin::total            0                       # Table walker requests started/completed, data/inst
system.cpu.dtb.walker.walks                         0                       # Table walker walks requested
system.cpu.dtb.write_accesses                       0                       # DTB write accesses
system.cpu.dtb.write_hits                           0                       # DTB write hits
system.cpu.dtb.write_misses                         0                       # DTB write misses
system.cpu.fetch.Branches                     1938624                       # Number of branches that fetch encountered
system.cpu.fetch.CacheLines                    308190                       # Number of cache lines fetched
system.cpu.fetch.Cycles                       1907863                       # Number of cycles fetch has run and was not squashing or blocked
system.cpu.fetch.IcacheSquashes                   781                       # Number of outstanding Icache misses that were squashed
system.cpu.fetch.Insts                       10075611                       # Number of instructions fetch has processed
system.cpu.fetch.SquashCycles                    3996                       # Number of cycles fetch has spent squashing
system.cpu.fetch.branchRate                  0.850890                       # Number of branch fetches per cycle
system.cpu.fetch.icacheStallCycles             320392                       # Number of cycles fetch is stalled on an Icache miss
system.cpu.fetch.predictedBranches            1269948                       # Number of branches that fetch has predicted taken
system.cpu.fetch.rate                        4.422332                       # Number of inst fetches per cycle
system.cpu.fetch.rateDist::samples            2230253                       # Number of instructions fetched each cycle (Total)
system.cpu.fetch.rateDist::mean              4.591675                       # Number of instructions fetched each cycle (Total)
system.cpu.fetch.rateDist::stdev             3.374302                       # Number of instructions fetched each cycle (Total)
system.cpu.fetch.rateDist::underflows               0      0.00%      0.00% # Number of instructions fetched each cycle (Total)
system.cpu.fetch.rateDist::0                   447055     20.05%     20.05% # Number of instructions fetched each cycle (Total)
system.cpu.fetch.rateDist::1                   251995     11.30%     31.34% # Number of instructions fetched each cycle (Total)
system.cpu.fetch.rateDist::2                   178579      8.01%     39.35% # Number of instructions fetched each cycle (Total)
system.cpu.fetch.rateDist::3                    73959      3.32%     42.67% # Number of instructions fetched each cycle (Total)
system.cpu.fetch.rateDist::4                    48707      2.18%     44.85% # Number of instructions fetched each cycle (Total)
system.cpu.fetch.rateDist::5                    84144      3.77%     48.62% # Number of instructions fetched each cycle (Total)
system.cpu.fetch.rateDist::6                    77698      3.48%     52.11% # Number of instructions fetched each cycle (Total)
system.cpu.fetch.rateDist::7                   217096      9.73%     61.84% # Number of instructions fetched each cycle (Total)
system.cpu.fetch.rateDist::8                   851020     38.16%    100.00% # Number of instructions fetched each cycle (Total)
system.cpu.fetch.rateDist::overflows                0      0.00%    100.00% # Number of instructions fetched each cycle (Total)
system.cpu.fetch.rateDist::min_value                0                       # Number of instructions fetched each cycle (Total)
system.cpu.fetch.rateDist::max_value                8                       # Number of instructions fetched each cycle (Total)
system.cpu.fetch.rateDist::total              2230253                       # Number of instructions fetched each cycle (Total)
system.cpu.icache.prefetcher.num_hwpf_issued            0                       # number of hwpf issued
system.cpu.icache.prefetcher.pfBufferHit            0                       # number of redundant prefetches already in prefetch queue
system.cpu.icache.prefetcher.pfIdentified            0                       # number of prefetch candidates identified
system.cpu.icache.prefetcher.pfInCache              0                       # number of redundant prefetches already in cache/mshr dropped
system.cpu.icache.prefetcher.pfRemovedFull            0                       # number of prefetches dropped due to prefetch queue size
system.cpu.icache.prefetcher.pfSpanPage             0                       # number of prefetches that crossed the page
system.cpu.idleCycles                           48095                       # Total number of cycles that the CPU has spent unscheduled due to idling
system.cpu.iew.branchMispredicts                 2446                       # Number of branch mispredicts detected at execute
system.cpu.iew.exec_branches                  1926306                       # Number of branches executed
system.cpu.iew.exec_nop                           150                       # number of nop insts executed
system.cpu.iew.exec_rate                     4.477911                       # Inst execution rate
system.cpu.iew.exec_refs                      3219998                       # number of memory reference insts executed
system.cpu.iew.exec_stores                     617878                       # Number of stores executed
system.cpu.iew.exec_swp                             0                       # number of swp insts executed
system.cpu.iew.iewBlockCycles                    7669                       # Number of cycles IEW is blocking
system.cpu.iew.iewDispLoadInsts               2586653                       # Number of dispatched load instructions
system.cpu.iew.iewDispNonSpecInsts                 72                       # Number of dispatched non-speculative instructions
system.cpu.iew.iewDispSquashedInsts               531                       # Number of squashed instructions skipped by dispatch
system.cpu.iew.iewDispStoreInsts               620223                       # Number of dispatched store instructions
system.cpu.iew.iewDispatchedInsts            10202539                       # Number of instructions dispatched to IQ
system.cpu.iew.iewExecLoadInsts               2602120                       # Number of load instructions executed
system.cpu.iew.iewExecSquashedInsts              2598                       # Number of squashed instructions skipped in execute
system.cpu.iew.iewExecutedInsts              10202239                       # Number of executed instructions
system.cpu.iew.iewIQFullEvents                    130                       # Number of times the IQ has become full, causing a stall
system.cpu.iew.iewIdleCycles                        0                       # Number of cycles IEW is idle
system.cpu.iew.iewLSQFullEvents                   543                       # Number of times the LSQ has become full, causing a stall
system.cpu.iew.iewSquashCycles                   1630                       # Number of cycles IEW is squashing
system.cpu.iew.iewUnblockCycles                   898                       # Number of cycles IEW is unblocking
system.cpu.iew.lsq.thread0.blockedLoads             0                       # Number of blocked loads due to partial load-store forwarding
system.cpu.iew.lsq.thread0.cacheBlocked             9                       # Number of times an access to memory failed due to the cache being blocked
system.cpu.iew.lsq.thread0.forwLoads              551                       # Number of loads that had data forwarded from stores
system.cpu.iew.lsq.thread0.ignoredResponses            0                       # Number of memory responses ignored because the instruction is squashed
system.cpu.iew.lsq.thread0.invAddrLoads             0                       # Number of loads ignored due to an invalid address
system.cpu.iew.lsq.thread0.invAddrSwpfs             0                       # Number of software prefetches ignored due to an invalid address
system.cpu.iew.lsq.thread0.memOrderViolation           39                       # Number of memory ordering violations
system.cpu.iew.lsq.thread0.rescheduledLoads        18709                       # Number of loads that were rescheduled
system.cpu.iew.lsq.thread0.squashedLoads         9071                       # Number of loads squashed
system.cpu.iew.lsq.thread0.squashedStores         4150                       # Number of stores squashed
system.cpu.iew.memOrderViolationEvents             39                       # Number of memory order violations
system.cpu.iew.predictedNotTakenIncorrect         1690                       # Number of branches that were predicted not taken incorrectly
system.cpu.iew.predictedTakenIncorrect            756                       # Number of branches that were predicted taken incorrectly
system.cpu.iew.wb_consumers                  12983605                       # num instructions consuming a value
system.cpu.iew.wb_count                      10180343                       # cumulative count of insts written-back
system.cpu.iew.wb_fanout                     0.558696                       # average fanout of values written-back
system.cpu.iew.wb_producers                   7253885                       # num instructions producing a value
system.cpu.iew.wb_rate                       4.468300                       # insts written-back per cycle
system.cpu.iew.wb_sent                       10182000                       # cumulative count of insts sent to commit
system.cpu.int_regfile_reads                 12575620                       # number of integer regfile reads
system.cpu.int_regfile_writes                 7569715                       # number of integer regfile writes
system.cpu.ipc                               4.389146                       # IPC: Instructions Per Cycle
system.cpu.ipc_total                         4.389146                       # IPC: Total IPC of All Threads
system.cpu.iq.FU_type_0::No_OpClass                13      0.00%      0.00% # Type of FU issued
system.cpu.iq.FU_type_0::IntAlu               6901238     67.63%     67.63% # Type of FU issued
system.cpu.iq.FU_type_0::IntMult                 6247      0.06%     67.69% # Type of FU issued
system.cpu.iq.FU_type_0::IntDiv                    18      0.00%     67.69% # Type of FU issued
system.cpu.iq.FU_type_0::FloatAdd                4094      0.04%     67.73% # Type of FU issued
system.cpu.iq.FU_type_0::FloatCmp               16377      0.16%     67.89% # Type of FU issued
system.cpu.iq.FU_type_0::FloatCvt                6163      0.06%     67.95% # Type of FU issued
system.cpu.iq.FU_type_0::FloatMult              22519      0.22%     68.17% # Type of FU issued
system.cpu.iq.FU_type_0::FloatMultAcc           22519      0.22%     68.39% # Type of FU issued
system.cpu.iq.FU_type_0::FloatDiv                  22      0.00%     68.39% # Type of FU issued
system.cpu.iq.FU_type_0::FloatMisc               2072      0.02%     68.41% # Type of FU issued
system.cpu.iq.FU_type_0::FloatSqrt                  0      0.00%     68.41% # Type of FU issued
system.cpu.iq.FU_type_0::SimdAdd                   43      0.00%     68.41% # Type of FU issued
system.cpu.iq.FU_type_0::SimdAddAcc                 0      0.00%     68.41% # Type of FU issued
system.cpu.iq.FU_type_0::SimdAlu                   51      0.00%     68.41% # Type of FU issued
system.cpu.iq.FU_type_0::SimdCmp                   52      0.00%     68.41% # Type of FU issued
system.cpu.iq.FU_type_0::SimdCvt                    0      0.00%     68.41% # Type of FU issued
system.cpu.iq.FU_type_0::SimdMisc                2088      0.02%     68.43% # Type of FU issued
system.cpu.iq.FU_type_0::SimdMult                   0      0.00%     68.43% # Type of FU issued
system.cpu.iq.FU_type_0::SimdMultAcc                0      0.00%     68.43% # Type of FU issued
system.cpu.iq.FU_type_0::SimdShift                  0      0.00%     68.43% # Type of FU issued
system.cpu.iq.FU_type_0::SimdShiftAcc               0      0.00%     68.43% # Type of FU issued
system.cpu.iq.FU_type_0::SimdDiv                    0      0.00%     68.43% # Type of FU issued
system.cpu.iq.FU_type_0::SimdSqrt                   0      0.00%     68.43% # Type of FU issued
system.cpu.iq.FU_type_0::SimdFloatAdd               0      0.00%     68.43% # Type of FU issued
system.cpu.iq.FU_type_0::SimdFloatAlu               0      0.00%     68.43% # Type of FU issued
system.cpu.iq.FU_type_0::SimdFloatCmp               0      0.00%     68.43% # Type of FU issued
system.cpu.iq.FU_type_0::SimdFloatCvt               0      0.00%     68.43% # Type of FU issued
system.cpu.iq.FU_type_0::SimdFloatDiv               0      0.00%     68.43% # Type of FU issued
system.cpu.iq.FU_type_0::SimdFloatMisc              0      0.00%     68.43% # Type of FU issued
system.cpu.iq.FU_type_0::SimdFloatMult              0      0.00%     68.43% # Type of FU issued
system.cpu.iq.FU_type_0::SimdFloatMultAcc            0      0.00%     68.43% # Type of FU issued
system.cpu.iq.FU_type_0::SimdFloatSqrt              0      0.00%     68.43% # Type of FU issued
system.cpu.iq.FU_type_0::SimdReduceAdd              0      0.00%     68.43% # Type of FU issued
system.cpu.iq.FU_type_0::SimdReduceAlu              0      0.00%     68.43% # Type of FU issued
system.cpu.iq.FU_type_0::SimdReduceCmp              0      0.00%     68.43% # Type of FU issued
system.cpu.iq.FU_type_0::SimdFloatReduceAdd            0      0.00%     68.43% # Type of FU issued
system.cpu.iq.FU_type_0::SimdFloatReduceCmp            0      0.00%     68.43% # Type of FU issued
system.cpu.iq.FU_type_0::SimdAes                    0      0.00%     68.43% # Type of FU issued
system.cpu.iq.FU_type_0::SimdAesMix                 0      0.00%     68.43% # Type of FU issued
system.cpu.iq.FU_type_0::SimdSha1Hash               0      0.00%     68.43% # Type of FU issued
system.cpu.iq.FU_type_0::SimdSha1Hash2              0      0.00%     68.43% # Type of FU issued
system.cpu.iq.FU_type_0::SimdSha256Hash             0      0.00%     68.43% # Type of FU issued
system.cpu.iq.FU_type_0::SimdSha256Hash2            0      0.00%     68.43% # Type of FU issued
system.cpu.iq.FU_type_0::SimdShaSigma2              0      0.00%     68.43% # Type of FU issued
system.cpu.iq.FU_type_0::SimdShaSigma3              0      0.00%     68.43% # Type of FU issued
system.cpu.iq.FU_type_0::SimdPredAlu                0      0.00%     68.43% # Type of FU issued
system.cpu.iq.FU_type_0::MemRead              2602963     25.51%     93.94% # Type of FU issued
system.cpu.iq.FU_type_0::MemWrite              618360      6.06%    100.00% # Type of FU issued
system.cpu.iq.FU_type_0::FloatMemRead               0      0.00%    100.00% # Type of FU issued
system.cpu.iq.FU_type_0::FloatMemWrite              0      0.00%    100.00% # Type of FU issued
system.cpu.iq.FU_type_0::IprAccess                  0      0.00%    100.00% # Type of FU issued
system.cpu.iq.FU_type_0::InstPrefetch               0      0.00%    100.00% # Type of FU issued
system.cpu.iq.FU_type_0::total               10204839                       # Type of FU issued
system.cpu.iq.fp_alu_accesses                       0                       # Number of floating point alu accesses
system.cpu.iq.fp_inst_queue_reads                   0                       # Number of floating instruction queue reads
system.cpu.iq.fp_inst_queue_wakeup_accesses            0                       # Number of floating instruction queue wakeup accesses
system.cpu.iq.fp_inst_queue_writes                  0                       # Number of floating instruction queue writes
system.cpu.iq.fu_busy_cnt                      101842                       # FU busy when requested
system.cpu.iq.fu_busy_rate                   0.009980                       # FU busy rate (busy events/executed inst)
system.cpu.iq.fu_full::No_OpClass                   0      0.00%      0.00% # attempts to use FU when none available
system.cpu.iq.fu_full::IntAlu                   64424     63.26%     63.26% # attempts to use FU when none available
system.cpu.iq.fu_full::IntMult                      0      0.00%     63.26% # attempts to use FU when none available
system.cpu.iq.fu_full::IntDiv                       0      0.00%     63.26% # attempts to use FU when none available
system.cpu.iq.fu_full::FloatAdd                     0      0.00%     63.26% # attempts to use FU when none available
system.cpu.iq.fu_full::FloatCmp                     0      0.00%     63.26% # attempts to use FU when none available
system.cpu.iq.fu_full::FloatCvt                     0      0.00%     63.26% # attempts to use FU when none available
system.cpu.iq.fu_full::FloatMult                  393      0.39%     63.64% # attempts to use FU when none available
system.cpu.iq.fu_full::FloatMultAcc                 3      0.00%     63.65% # attempts to use FU when none available
system.cpu.iq.fu_full::FloatDiv                     0      0.00%     63.65% # attempts to use FU when none available
system.cpu.iq.fu_full::FloatMisc                    1      0.00%     63.65% # attempts to use FU when none available
system.cpu.iq.fu_full::FloatSqrt                    0      0.00%     63.65% # attempts to use FU when none available
system.cpu.iq.fu_full::SimdAdd                      0      0.00%     63.65% # attempts to use FU when none available
system.cpu.iq.fu_full::SimdAddAcc                   0      0.00%     63.65% # attempts to use FU when none available
system.cpu.iq.fu_full::SimdAlu                      2      0.00%     63.65% # attempts to use FU when none available
system.cpu.iq.fu_full::SimdCmp                      4      0.00%     63.65% # attempts to use FU when none available
system.cpu.iq.fu_full::SimdCvt                      0      0.00%     63.65% # attempts to use FU when none available
system.cpu.iq.fu_full::SimdMisc                     0      0.00%     63.65% # attempts to use FU when none available
system.cpu.iq.fu_full::SimdMult                     0      0.00%     63.65% # attempts to use FU when none available
system.cpu.iq.fu_full::SimdMultAcc                  0      0.00%     63.65% # attempts to use FU when none available
system.cpu.iq.fu_full::SimdShift                    0      0.00%     63.65% # attempts to use FU when none available
system.cpu.iq.fu_full::SimdShiftAcc                 0      0.00%     63.65% # attempts to use FU when none available
system.cpu.iq.fu_full::SimdDiv                      0      0.00%     63.65% # attempts to use FU when none available
system.cpu.iq.fu_full::SimdSqrt                     0      0.00%     63.65% # attempts to use FU when none available
system.cpu.iq.fu_full::SimdFloatAdd                 0      0.00%     63.65% # attempts to use FU when none available
system.cpu.iq.fu_full::SimdFloatAlu                 0      0.00%     63.65% # attempts to use FU when none available
system.cpu.iq.fu_full::SimdFloatCmp                 0      0.00%     63.65% # attempts to use FU when none available
system.cpu.iq.fu_full::SimdFloatCvt                 0      0.00%     63.65% # attempts to use FU when none available
system.cpu.iq.fu_full::SimdFloatDiv                 0      0.00%     63.65% # attempts to use FU when none available
system.cpu.iq.fu_full::SimdFloatMisc                0      0.00%     63.65% # attempts to use FU when none available
system.cpu.iq.fu_full::SimdFloatMult                0      0.00%     63.65% # attempts to use FU when none available
system.cpu.iq.fu_full::SimdFloatMultAcc             0      0.00%     63.65% # attempts to use FU when none available
system.cpu.iq.fu_full::SimdFloatSqrt                0      0.00%     63.65% # attempts to use FU when none available
system.cpu.iq.fu_full::SimdReduceAdd                0      0.00%     63.65% # attempts to use FU when none available
system.cpu.iq.fu_full::SimdReduceAlu                0      0.00%     63.65% # attempts to use FU when none available
system.cpu.iq.fu_full::SimdReduceCmp                0      0.00%     63.65% # attempts to use FU when none available
system.cpu.iq.fu_full::SimdFloatReduceAdd            0      0.00%     63.65% # attempts to use FU when none available
system.cpu.iq.fu_full::SimdFloatReduceCmp            0      0.00%     63.65% # attempts to use FU when none available
system.cpu.iq.fu_full::SimdAes                      0      0.00%     63.65% # attempts to use FU when none available
system.cpu.iq.fu_full::SimdAesMix                   0      0.00%     63.65% # attempts to use FU when none available
system.cpu.iq.fu_full::SimdSha1Hash                 0      0.00%     63.65% # attempts to use FU when none available
system.cpu.iq.fu_full::SimdSha1Hash2                0      0.00%     63.65% # attempts to use FU when none available
system.cpu.iq.fu_full::SimdSha256Hash               0      0.00%     63.65% # attempts to use FU when none available
system.cpu.iq.fu_full::SimdSha256Hash2              0      0.00%     63.65% # attempts to use FU when none available
system.cpu.iq.fu_full::SimdShaSigma2                0      0.00%     63.65% # attempts to use FU when none available
system.cpu.iq.fu_full::SimdShaSigma3                0      0.00%     63.65% # attempts to use FU when none available
system.cpu.iq.fu_full::SimdPredAlu                  0      0.00%     63.65% # attempts to use FU when none available
system.cpu.iq.fu_full::MemRead                  19291     18.94%     82.60% # attempts to use FU when none available
system.cpu.iq.fu_full::MemWrite                 17724     17.40%    100.00% # attempts to use FU when none available
system.cpu.iq.fu_full::FloatMemRead                 0      0.00%    100.00% # attempts to use FU when none available
system.cpu.iq.fu_full::FloatMemWrite                0      0.00%    100.00% # attempts to use FU when none available
system.cpu.iq.fu_full::IprAccess                    0      0.00%    100.00% # attempts to use FU when none available
system.cpu.iq.fu_full::InstPrefetch                 0      0.00%    100.00% # attempts to use FU when none available
system.cpu.iq.int_alu_accesses               10149066                       # Number of integer alu accesses
system.cpu.iq.int_inst_queue_reads           22435861                       # Number of integer instruction queue reads
system.cpu.iq.int_inst_queue_wakeup_accesses     10032111                       # Number of integer instruction queue wakeup accesses
system.cpu.iq.int_inst_queue_writes          10095573                       # Number of integer instruction queue writes
system.cpu.iq.iqInstsAdded                   10202317                       # Number of instructions added to the IQ (excludes non-spec)
system.cpu.iq.iqInstsIssued                  10204839                       # Number of instructions issued
system.cpu.iq.iqNonSpecInstsAdded                  72                       # Number of non-speculative instructions added to the IQ
system.cpu.iq.iqSquashedInstsExamined           43000                       # Number of squashed instructions iterated over during squash; mainly for profiling
system.cpu.iq.iqSquashedInstsIssued               283                       # Number of squashed instructions issued
system.cpu.iq.iqSquashedNonSpecRemoved             16                       # Number of squashed non-spec instructions that were removed
system.cpu.iq.iqSquashedOperandsExamined        39580                       # Number of squashed operands that are examined and possibly removed from graph
system.cpu.iq.issued_per_cycle::samples       2230253                       # Number of insts issued each cycle
system.cpu.iq.issued_per_cycle::mean         4.575642                       # Number of insts issued each cycle
system.cpu.iq.issued_per_cycle::stdev        2.168226                       # Number of insts issued each cycle
system.cpu.iq.issued_per_cycle::underflows            0      0.00%      0.00% # Number of insts issued each cycle
system.cpu.iq.issued_per_cycle::0               91063      4.08%      4.08% # Number of insts issued each cycle
system.cpu.iq.issued_per_cycle::1               74934      3.36%      7.44% # Number of insts issued each cycle
system.cpu.iq.issued_per_cycle::2              261802     11.74%     19.18% # Number of insts issued each cycle
system.cpu.iq.issued_per_cycle::3              446798     20.03%     39.22% # Number of insts issued each cycle
system.cpu.iq.issued_per_cycle::4              122460      5.49%     44.71% # Number of insts issued each cycle
system.cpu.iq.issued_per_cycle::5              265925     11.92%     56.63% # Number of insts issued each cycle
system.cpu.iq.issued_per_cycle::6              449149     20.14%     76.77% # Number of insts issued each cycle
system.cpu.iq.issued_per_cycle::7              393428     17.64%     94.41% # Number of insts issued each cycle
system.cpu.iq.issued_per_cycle::8              124694      5.59%    100.00% # Number of insts issued each cycle
system.cpu.iq.issued_per_cycle::overflows            0      0.00%    100.00% # Number of insts issued each cycle
system.cpu.iq.issued_per_cycle::min_value            0                       # Number of insts issued each cycle
system.cpu.iq.issued_per_cycle::max_value            8                       # Number of insts issued each cycle
system.cpu.iq.issued_per_cycle::total         2230253                       # Number of insts issued each cycle
system.cpu.iq.rate                           4.479052                       # Inst issue rate
system.cpu.iq.vec_alu_accesses                 157602                       # Number of vector alu accesses
system.cpu.iq.vec_inst_queue_reads             306193                       # Number of vector instruction queue reads
system.cpu.iq.vec_inst_queue_wakeup_accesses       148232                       # Number of vector instruction queue wakeup accesses
system.cpu.iq.vec_inst_queue_writes            149853                       # Number of vector instruction queue writes
system.cpu.itb.accesses                             0                       # DTB accesses
system.cpu.itb.align_faults                         0                       # Number of TLB faults due to alignment restrictions
system.cpu.itb.domain_faults                        0                       # Number of TLB faults due to domain restrictions
system.cpu.itb.flush_entries                        0                       # Number of entries that have been flushed from TLB
system.cpu.itb.flush_tlb                            0                       # Number of times complete TLB was flushed
system.cpu.itb.flush_tlb_asid                       0                       # Number of times TLB was flushed by ASID
system.cpu.itb.flush_tlb_mva                        0                       # Number of times TLB was flushed by MVA
system.cpu.itb.flush_tlb_mva_asid                   0                       # Number of times TLB was flushed by MVA & ASID
system.cpu.itb.hits                                 0                       # DTB hits
system.cpu.itb.inst_accesses                        0                       # ITB inst accesses
system.cpu.itb.inst_hits                            0                       # ITB inst hits
system.cpu.itb.inst_misses                          0                       # ITB inst misses
system.cpu.itb.misses                               0                       # DTB misses
system.cpu.itb.perms_faults                         0                       # Number of TLB faults due to permissions restrictions
system.cpu.itb.prefetch_faults                      0                       # Number of TLB faults due to prefetch
system.cpu.itb.read_accesses                        0                       # DTB read accesses
system.cpu.itb.read_hits                            0                       # DTB read hits
system.cpu.itb.read_misses                          0                       # DTB read misses
system.cpu.itb.stage2_mmu.stage2_tlb.accesses            0                       # DTB accesses
system.cpu.itb.stage2_mmu.stage2_tlb.align_faults            0                       # Number of TLB faults due to alignment restrictions
system.cpu.itb.stage2_mmu.stage2_tlb.domain_faults            0                       # Number of TLB faults due to domain restrictions
system.cpu.itb.stage2_mmu.stage2_tlb.flush_entries            0                       # Number of entries that have been flushed from TLB
system.cpu.itb.stage2_mmu.stage2_tlb.flush_tlb            0                       # Number of times complete TLB was flushed
system.cpu.itb.stage2_mmu.stage2_tlb.flush_tlb_asid            0                       # Number of times TLB was flushed by ASID
system.cpu.itb.stage2_mmu.stage2_tlb.flush_tlb_mva            0                       # Number of times TLB was flushed by MVA
system.cpu.itb.stage2_mmu.stage2_tlb.flush_tlb_mva_asid            0                       # Number of times TLB was flushed by MVA & ASID
system.cpu.itb.stage2_mmu.stage2_tlb.hits            0                       # DTB hits
system.cpu.itb.stage2_mmu.stage2_tlb.inst_accesses            0                       # ITB inst accesses
system.cpu.itb.stage2_mmu.stage2_tlb.inst_hits            0                       # ITB inst hits
system.cpu.itb.stage2_mmu.stage2_tlb.inst_misses            0                       # ITB inst misses
system.cpu.itb.stage2_mmu.stage2_tlb.misses            0                       # DTB misses
system.cpu.itb.stage2_mmu.stage2_tlb.perms_faults            0                       # Number of TLB faults due to permissions restrictions
system.cpu.itb.stage2_mmu.stage2_tlb.prefetch_faults            0                       # Number of TLB faults due to prefetch
system.cpu.itb.stage2_mmu.stage2_tlb.read_accesses            0                       # DTB read accesses
system.cpu.itb.stage2_mmu.stage2_tlb.read_hits            0                       # DTB read hits
system.cpu.itb.stage2_mmu.stage2_tlb.read_misses            0                       # DTB read misses
system.cpu.itb.stage2_mmu.stage2_tlb.walker.walkRequestOrigin_Requested::Data            0                       # Table walker requests started/completed, data/inst
system.cpu.itb.stage2_mmu.stage2_tlb.walker.walkRequestOrigin_Requested::Inst            0                       # Table walker requests started/completed, data/inst
system.cpu.itb.stage2_mmu.stage2_tlb.walker.walkRequestOrigin_Requested::total            0                       # Table walker requests started/completed, data/inst
system.cpu.itb.stage2_mmu.stage2_tlb.walker.walkRequestOrigin_Completed::Data            0                       # Table walker requests started/completed, data/inst
system.cpu.itb.stage2_mmu.stage2_tlb.walker.walkRequestOrigin_Completed::Inst            0                       # Table walker requests started/completed, data/inst
system.cpu.itb.stage2_mmu.stage2_tlb.walker.walkRequestOrigin_Completed::total            0                       # Table walker requests started/completed, data/inst
system.cpu.itb.stage2_mmu.stage2_tlb.walker.walkRequestOrigin::total            0                       # Table walker requests started/completed, data/inst
system.cpu.itb.stage2_mmu.stage2_tlb.walker.walks            0                       # Table walker walks requested
system.cpu.itb.stage2_mmu.stage2_tlb.write_accesses            0                       # DTB write accesses
system.cpu.itb.stage2_mmu.stage2_tlb.write_hits            0                       # DTB write hits
system.cpu.itb.stage2_mmu.stage2_tlb.write_misses            0                       # DTB write misses
system.cpu.itb.walker.walkRequestOrigin_Requested::Data            0                       # Table walker requests started/completed, data/inst
system.cpu.itb.walker.walkRequestOrigin_Requested::Inst            0                       # Table walker requests started/completed, data/inst
system.cpu.itb.walker.walkRequestOrigin_Requested::total            0                       # Table walker requests started/completed, data/inst
system.cpu.itb.walker.walkRequestOrigin_Completed::Data            0                       # Table walker requests started/completed, data/inst
system.cpu.itb.walker.walkRequestOrigin_Completed::Inst            0                       # Table walker requests started/completed, data/inst
system.cpu.itb.walker.walkRequestOrigin_Completed::total            0                       # Table walker requests started/completed, data/inst
system.cpu.itb.walker.walkRequestOrigin::total            0                       # Table walker requests started/completed, data/inst
system.cpu.itb.walker.walks                         0                       # Table walker walks requested
system.cpu.itb.write_accesses                       0                       # DTB write accesses
system.cpu.itb.write_hits                           0                       # DTB write hits
system.cpu.itb.write_misses                         0                       # DTB write misses
system.cpu.memDep0.conflictingLoads              3170                       # Number of conflicting loads.
system.cpu.memDep0.conflictingStores             2347                       # Number of conflicting stores.
system.cpu.memDep0.insertedLoads              2586653                       # Number of loads inserted to the mem dependence unit.
system.cpu.memDep0.insertedStores              620223                       # Number of stores inserted to the mem dependence unit.
system.cpu.misc_regfile_reads                 6432722                       # number of misc regfile reads
system.cpu.misc_regfile_writes                  71882                       # number of misc regfile writes
system.cpu.numCycles                          2278348                       # number of cpu cycles simulated
system.cpu.numWorkItemsCompleted                    0                       # number of work items this cpu completed
system.cpu.numWorkItemsStarted                      0                       # number of work items this cpu started
system.cpu.rename.BlockCycles                   10926                       # Number of cycles rename is blocking
system.cpu.rename.CommittedMaps              13290416                       # Number of HB maps that are committed
system.cpu.rename.IQFullEvents                  32093                       # Number of times rename has blocked due to IQ full
system.cpu.rename.IdleCycles                   375970                       # Number of cycles rename is idle
system.cpu.rename.LQFullEvents                  15691                       # Number of times rename has blocked due to LQ full
system.cpu.rename.ROBFullEvents                     3                       # Number of times rename has blocked due to ROB full
system.cpu.rename.RenameLookups              18757998                       # Number of register rename lookups that rename has made
system.cpu.rename.RenamedInsts               10215016                       # Number of instructions processed by rename
system.cpu.rename.RenamedOperands            13355730                       # Number of destination operands rename has renamed
system.cpu.rename.RunCycles                   1727822                       # Number of cycles rename is running
system.cpu.rename.SQFullEvents                  28568                       # Number of times rename has blocked due to SQ full
system.cpu.rename.SquashCycles                   1630                       # Number of cycles rename is squashing
system.cpu.rename.UnblockCycles                106995                       # Number of cycles rename is unblocking
system.cpu.rename.UndoneMaps                    65248                       # Number of HB maps that are undone due to squashing
system.cpu.rename.int_rename_lookups         12595299                       # Number of integer rename lookups
system.cpu.rename.serializeStallCycles           6910                       # count of cycles rename stalled for serializing inst
system.cpu.rename.serializingInsts                305                       # count of serializing insts renamed
system.cpu.rename.skidInsts                    317595                       # count of insts added to the skid buffer
system.cpu.rename.tempSerializingInsts             73                       # count of temporary serializing insts renamed
system.cpu.rename.vec_rename_lookups           210579                       # Number of vector rename lookups
system.cpu.rob.rob_reads                     11612945                       # The number of ROB reads
system.cpu.rob.rob_writes                    20410657                       # The number of ROB writes
system.cpu.timesIdled                             441                       # Number of times that the entire CPU went into an idle state and unscheduled itself
system.cpu.vec_regfile_reads                   209722                       # number of vector regfile reads
system.cpu.vec_regfile_writes                   96690                       # number of vector regfile writes
system.cpu.workload.numSyscalls                     7                       # Number of system calls
system.membus.snoop_filter.hit_multi_requests            0                       # Number of requests hitting in the snoop filter with multiple (>1) holders of the requested data.
system.membus.snoop_filter.hit_multi_snoops            0                       # Number of snoops hitting in the snoop filter with multiple (>1) holders of the requested data.
system.membus.snoop_filter.hit_single_requests            0                       # Number of requests hitting in the snoop filter with a single holder of the requested data.
system.membus.snoop_filter.hit_single_snoops            0                       # Number of snoops hitting in the snoop filter with a single holder of the requested data.
system.membus.snoop_filter.tot_requests          1944                       # Total number of requests made to the snoop filter.
system.membus.snoop_filter.tot_snoops               0                       # Total number of snoops made to the snoop filter.
system.tol2bus.snoop_filter.hit_multi_requests            1                       # Number of requests hitting in the snoop filter with multiple (>1) holders of the requested data.
system.tol2bus.snoop_filter.hit_multi_snoops            0                       # Number of snoops hitting in the snoop filter with multiple (>1) holders of the requested data.
system.tol2bus.snoop_filter.hit_single_requests         3711                       # Number of requests hitting in the snoop filter with a single holder of the requested data.
system.tol2bus.snoop_filter.hit_single_snoops            0                       # Number of snoops hitting in the snoop filter with a single holder of the requested data.
system.tol2bus.snoop_filter.tot_requests         8971                       # Total number of requests made to the snoop filter.
system.tol2bus.snoop_filter.tot_snoops              0                       # Total number of snoops made to the snoop filter.
system.membus.trans_dist::ReadResp                700                       # Transaction distribution
system.membus.trans_dist::ReadExReq               696                       # Transaction distribution
system.membus.trans_dist::ReadExResp              696                       # Transaction distribution
system.membus.trans_dist::ReadSharedReq           700                       # Transaction distribution
system.membus.trans_dist::InvalidateReq           548                       # Transaction distribution
system.membus.pkt_count_system.l2.mem_side::system.mem_ctrls.port         3340                       # Packet count per connected master and slave (bytes)
system.membus.pkt_count::total                   3340                       # Packet count per connected master and slave (bytes)
system.membus.pkt_size_system.l2.mem_side::system.mem_ctrls.port        89344                       # Cumulative packet size per connected master and slave (bytes)
system.membus.pkt_size::total                   89344                       # Cumulative packet size per connected master and slave (bytes)
system.membus.snoops                                0                       # Total snoops (count)
system.membus.snoopTraffic                          0                       # Total snoop traffic (bytes)
system.membus.snoop_fanout::samples              1944                       # Request fanout histogram
system.membus.snoop_fanout::mean                    0                       # Request fanout histogram
system.membus.snoop_fanout::stdev                   0                       # Request fanout histogram
system.membus.snoop_fanout::underflows              0      0.00%      0.00% # Request fanout histogram
system.membus.snoop_fanout::0                    1944    100.00%    100.00% # Request fanout histogram
system.membus.snoop_fanout::1                       0      0.00%    100.00% # Request fanout histogram
system.membus.snoop_fanout::overflows               0      0.00%    100.00% # Request fanout histogram
system.membus.snoop_fanout::min_value               0                       # Request fanout histogram
system.membus.snoop_fanout::max_value               0                       # Request fanout histogram
system.membus.snoop_fanout::total                1944                       # Request fanout histogram
system.membus.reqLayer0.occupancy             2210500                       # Layer occupancy (ticks)
system.membus.reqLayer0.utilization               0.2                       # Layer utilization (%)
system.membus.respLayer1.occupancy            7363750                       # Layer occupancy (ticks)
system.membus.respLayer1.utilization              0.6                       # Layer utilization (%)
system.membus.power_state.pwrStateResidencyTicks::UNDEFINED   1139173500                       # Cumulative time (in ticks) in various power states
system.tol2bus.trans_dist::ReadResp              3802                       # Transaction distribution
system.tol2bus.trans_dist::WritebackDirty         3549                       # Transaction distribution
system.tol2bus.trans_dist::WritebackClean           76                       # Transaction distribution
system.tol2bus.trans_dist::CleanEvict              86                       # Transaction distribution
system.tol2bus.trans_dist::ReadExReq              910                       # Transaction distribution
system.tol2bus.trans_dist::ReadExResp             910                       # Transaction distribution
system.tol2bus.trans_dist::ReadCleanReq           605                       # Transaction distribution
system.tol2bus.trans_dist::ReadSharedReq         3197                       # Transaction distribution
system.tol2bus.trans_dist::InvalidateReq          548                       # Transaction distribution
system.tol2bus.trans_dist::InvalidateResp          548                       # Transaction distribution
system.tol2bus.pkt_count_system.cpu.icache.mem_side::system.l2.cpu_side         1286                       # Packet count per connected master and slave (bytes)
system.tol2bus.pkt_count_system.cpu.dcache.mem_side::system.l2.cpu_side        12945                       # Packet count per connected master and slave (bytes)
system.tol2bus.pkt_count::total                 14231                       # Packet count per connected master and slave (bytes)
system.tol2bus.pkt_size_system.cpu.icache.mem_side::system.l2.cpu_side        43584                       # Cumulative packet size per connected master and slave (bytes)
system.tol2bus.pkt_size_system.cpu.dcache.mem_side::system.l2.cpu_side       489984                       # Cumulative packet size per connected master and slave (bytes)
system.tol2bus.pkt_size::total                 533568                       # Cumulative packet size per connected master and slave (bytes)
system.tol2bus.snoops                               0                       # Total snoops (count)
system.tol2bus.snoopTraffic                         0                       # Total snoop traffic (bytes)
system.tol2bus.snoop_fanout::samples             5260                       # Request fanout histogram
system.tol2bus.snoop_fanout::mean            0.000190                       # Request fanout histogram
system.tol2bus.snoop_fanout::stdev           0.013788                       # Request fanout histogram
system.tol2bus.snoop_fanout::underflows             0      0.00%      0.00% # Request fanout histogram
system.tol2bus.snoop_fanout::0                   5259     99.98%     99.98% # Request fanout histogram
system.tol2bus.snoop_fanout::1                      1      0.02%    100.00% # Request fanout histogram
system.tol2bus.snoop_fanout::2                      0      0.00%    100.00% # Request fanout histogram
system.tol2bus.snoop_fanout::overflows              0      0.00%    100.00% # Request fanout histogram
system.tol2bus.snoop_fanout::min_value              0                       # Request fanout histogram
system.tol2bus.snoop_fanout::max_value              1                       # Request fanout histogram
system.tol2bus.snoop_fanout::total               5260                       # Request fanout histogram
system.tol2bus.reqLayer0.occupancy            8110500                       # Layer occupancy (ticks)
system.tol2bus.reqLayer0.utilization              0.7                       # Layer utilization (%)
system.tol2bus.respLayer1.occupancy           6434500                       # Layer occupancy (ticks)
system.tol2bus.respLayer1.utilization             0.6                       # Layer utilization (%)
system.tol2bus.respLayer0.occupancy            908498                       # Layer occupancy (ticks)
system.tol2bus.respLayer0.utilization             0.1                       # Layer utilization (%)
system.tol2bus.power_state.pwrStateResidencyTicks::UNDEFINED   1139173500                       # Cumulative time (in ticks) in various power states
system.voltage_domain.voltage                       1                       # Voltage in Volts
system.clk_domain.clock                          1000                       # Clock period in ticks
system.l2.demand_hits::.cpu.inst                    7                       # number of demand (read+write) hits
system.l2.demand_hits::.cpu.data                 3309                       # number of demand (read+write) hits
system.l2.demand_hits::total                     3316                       # number of demand (read+write) hits
system.l2.overall_hits::.cpu.inst                   7                       # number of overall hits
system.l2.overall_hits::.cpu.data                3309                       # number of overall hits
system.l2.overall_hits::total                    3316                       # number of overall hits
system.l2.demand_misses::.cpu.inst                598                       # number of demand (read+write) misses
system.l2.demand_misses::.cpu.data                798                       # number of demand (read+write) misses
system.l2.demand_misses::total                   1396                       # number of demand (read+write) misses
system.l2.overall_misses::.cpu.inst               598                       # number of overall misses
system.l2.overall_misses::.cpu.data               798                       # number of overall misses
system.l2.overall_misses::total                  1396                       # number of overall misses
system.l2.demand_miss_latency::.cpu.inst     47942500                       # number of demand (read+write) miss cycles
system.l2.demand_miss_latency::.cpu.data     63336000                       # number of demand (read+write) miss cycles
system.l2.demand_miss_latency::total        111278500                       # number of demand (read+write) miss cycles
system.l2.overall_miss_latency::.cpu.inst     47942500                       # number of overall miss cycles
system.l2.overall_miss_latency::.cpu.data     63336000                       # number of overall miss cycles
system.l2.overall_miss_latency::total       111278500                       # number of overall miss cycles
system.l2.demand_accesses::.cpu.inst              605                       # number of demand (read+write) accesses
system.l2.demand_accesses::.cpu.data             4107                       # number of demand (read+write) accesses
system.l2.demand_accesses::total                 4712                       # number of demand (read+write) accesses
system.l2.overall_accesses::.cpu.inst             605                       # number of overall (read+write) accesses
system.l2.overall_accesses::.cpu.data            4107                       # number of overall (read+write) accesses
system.l2.overall_accesses::total                4712                       # number of overall (read+write) accesses
system.l2.demand_miss_rate::.cpu.inst        0.988430                       # miss rate for demand accesses
system.l2.demand_miss_rate::.cpu.data        0.194302                       # miss rate for demand accesses
system.l2.demand_miss_rate::total            0.296265                       # miss rate for demand accesses
system.l2.overall_miss_rate::.cpu.inst       0.988430                       # miss rate for overall accesses
system.l2.overall_miss_rate::.cpu.data       0.194302                       # miss rate for overall accesses
system.l2.overall_miss_rate::total           0.296265                       # miss rate for overall accesses
system.l2.demand_avg_miss_latency::.cpu.inst 80171.404682                       # average overall miss latency
system.l2.demand_avg_miss_latency::.cpu.data 79368.421053                       # average overall miss latency
system.l2.demand_avg_miss_latency::total 79712.392550                       # average overall miss latency
system.l2.overall_avg_miss_latency::.cpu.inst 80171.404682                       # average overall miss latency
system.l2.overall_avg_miss_latency::.cpu.data 79368.421053                       # average overall miss latency
system.l2.overall_avg_miss_latency::total 79712.392550                       # average overall miss latency
system.l2.blocked_cycles::no_mshrs                  0                       # number of cycles access was blocked
system.l2.blocked_cycles::no_targets                0                       # number of cycles access was blocked
system.l2.blocked::no_mshrs                         0                       # number of cycles access was blocked
system.l2.blocked::no_targets                       0                       # number of cycles access was blocked
system.l2.avg_blocked_cycles::no_mshrs            nan                       # average number of cycles each access was blocked
system.l2.avg_blocked_cycles::no_targets          nan                       # average number of cycles each access was blocked
system.l2.demand_mshr_misses::.cpu.inst           598                       # number of demand (read+write) MSHR misses
system.l2.demand_mshr_misses::.cpu.data           798                       # number of demand (read+write) MSHR misses
system.l2.demand_mshr_misses::total              1396                       # number of demand (read+write) MSHR misses
system.l2.overall_mshr_misses::.cpu.inst          598                       # number of overall MSHR misses
system.l2.overall_mshr_misses::.cpu.data          798                       # number of overall MSHR misses
system.l2.overall_mshr_misses::total             1396                       # number of overall MSHR misses
system.l2.demand_mshr_miss_latency::.cpu.inst     41962500                       # number of demand (read+write) MSHR miss cycles
system.l2.demand_mshr_miss_latency::.cpu.data     55356000                       # number of demand (read+write) MSHR miss cycles
system.l2.demand_mshr_miss_latency::total     97318500                       # number of demand (read+write) MSHR miss cycles
system.l2.overall_mshr_miss_latency::.cpu.inst     41962500                       # number of overall MSHR miss cycles
system.l2.overall_mshr_miss_latency::.cpu.data     55356000                       # number of overall MSHR miss cycles
system.l2.overall_mshr_miss_latency::total     97318500                       # number of overall MSHR miss cycles
system.l2.demand_mshr_miss_rate::.cpu.inst     0.988430                       # mshr miss rate for demand accesses
system.l2.demand_mshr_miss_rate::.cpu.data     0.194302                       # mshr miss rate for demand accesses
system.l2.demand_mshr_miss_rate::total       0.296265                       # mshr miss rate for demand accesses
system.l2.overall_mshr_miss_rate::.cpu.inst     0.988430                       # mshr miss rate for overall accesses
system.l2.overall_mshr_miss_rate::.cpu.data     0.194302                       # mshr miss rate for overall accesses
system.l2.overall_mshr_miss_rate::total      0.296265                       # mshr miss rate for overall accesses
system.l2.demand_avg_mshr_miss_latency::.cpu.inst 70171.404682                       # average overall mshr miss latency
system.l2.demand_avg_mshr_miss_latency::.cpu.data 69368.421053                       # average overall mshr miss latency
system.l2.demand_avg_mshr_miss_latency::total 69712.392550                       # average overall mshr miss latency
system.l2.overall_avg_mshr_miss_latency::.cpu.inst 70171.404682                       # average overall mshr miss latency
system.l2.overall_avg_mshr_miss_latency::.cpu.data 69368.421053                       # average overall mshr miss latency
system.l2.overall_avg_mshr_miss_latency::total 69712.392550                       # average overall mshr miss latency
system.l2.replacements                              0                       # number of replacements
system.l2.WritebackDirty_hits::.writebacks         3549                       # number of WritebackDirty hits
system.l2.WritebackDirty_hits::total             3549                       # number of WritebackDirty hits
system.l2.WritebackDirty_accesses::.writebacks         3549                       # number of WritebackDirty accesses(hits+misses)
system.l2.WritebackDirty_accesses::total         3549                       # number of WritebackDirty accesses(hits+misses)
system.l2.WritebackClean_hits::.writebacks           76                       # number of WritebackClean hits
system.l2.WritebackClean_hits::total               76                       # number of WritebackClean hits
system.l2.WritebackClean_accesses::.writebacks           76                       # number of WritebackClean accesses(hits+misses)
system.l2.WritebackClean_accesses::total           76                       # number of WritebackClean accesses(hits+misses)
system.l2.ReadExReq_hits::.cpu.data               214                       # number of ReadExReq hits
system.l2.ReadExReq_hits::total                   214                       # number of ReadExReq hits
system.l2.ReadExReq_misses::.cpu.data             696                       # number of ReadExReq misses
system.l2.ReadExReq_misses::total                 696                       # number of ReadExReq misses
system.l2.ReadExReq_miss_latency::.cpu.data     54296500                       # number of ReadExReq miss cycles
system.l2.ReadExReq_miss_latency::total      54296500                       # number of ReadExReq miss cycles
system.l2.ReadExReq_accesses::.cpu.data           910                       # number of ReadExReq accesses(hits+misses)
system.l2.ReadExReq_accesses::total               910                       # number of ReadExReq accesses(hits+misses)
system.l2.ReadExReq_miss_rate::.cpu.data     0.764835                       # miss rate for ReadExReq accesses
system.l2.ReadExReq_miss_rate::total         0.764835                       # miss rate for ReadExReq accesses
system.l2.ReadExReq_avg_miss_latency::.cpu.data 78012.212644                       # average ReadExReq miss latency
system.l2.ReadExReq_avg_miss_latency::total 78012.212644                       # average ReadExReq miss latency
system.l2.ReadExReq_mshr_misses::.cpu.data          696                       # number of ReadExReq MSHR misses
system.l2.ReadExReq_mshr_misses::total            696                       # number of ReadExReq MSHR misses
system.l2.ReadExReq_mshr_miss_latency::.cpu.data     47336500                       # number of ReadExReq MSHR miss cycles
system.l2.ReadExReq_mshr_miss_latency::total     47336500                       # number of ReadExReq MSHR miss cycles
system.l2.ReadExReq_mshr_miss_rate::.cpu.data     0.764835                       # mshr miss rate for ReadExReq accesses
system.l2.ReadExReq_mshr_miss_rate::total     0.764835                       # mshr miss rate for ReadExReq accesses
system.l2.ReadExReq_avg_mshr_miss_latency::.cpu.data 68012.212644                       # average ReadExReq mshr miss latency
system.l2.ReadExReq_avg_mshr_miss_latency::total 68012.212644                       # average ReadExReq mshr miss latency
system.l2.ReadCleanReq_hits::.cpu.inst              7                       # number of ReadCleanReq hits
system.l2.ReadCleanReq_hits::total                  7                       # number of ReadCleanReq hits
system.l2.ReadCleanReq_misses::.cpu.inst          598                       # number of ReadCleanReq misses
system.l2.ReadCleanReq_misses::total              598                       # number of ReadCleanReq misses
system.l2.ReadCleanReq_miss_latency::.cpu.inst     47942500                       # number of ReadCleanReq miss cycles
system.l2.ReadCleanReq_miss_latency::total     47942500                       # number of ReadCleanReq miss cycles
system.l2.ReadCleanReq_accesses::.cpu.inst          605                       # number of ReadCleanReq accesses(hits+misses)
system.l2.ReadCleanReq_accesses::total            605                       # number of ReadCleanReq accesses(hits+misses)
system.l2.ReadCleanReq_miss_rate::.cpu.inst     0.988430                       # miss rate for ReadCleanReq accesses
system.l2.ReadCleanReq_miss_rate::total      0.988430                       # miss rate for ReadCleanReq accesses
system.l2.ReadCleanReq_avg_miss_latency::.cpu.inst 80171.404682                       # average ReadCleanReq miss latency
system.l2.ReadCleanReq_avg_miss_latency::total 80171.404682                       # average ReadCleanReq miss latency
system.l2.ReadCleanReq_mshr_misses::.cpu.inst          598                       # number of ReadCleanReq MSHR misses
system.l2.ReadCleanReq_mshr_misses::total          598                       # number of ReadCleanReq MSHR misses
system.l2.ReadCleanReq_mshr_miss_latency::.cpu.inst     41962500                       # number of ReadCleanReq MSHR miss cycles
system.l2.ReadCleanReq_mshr_miss_latency::total     41962500                       # number of ReadCleanReq MSHR miss cycles
[...]
system.cpu.dcache.overall_hits::total         3178623                       # number of overall hits
system.cpu.dcache.demand_misses::.cpu.data        20198                       # number of demand (read+write) misses
system.cpu.dcache.demand_misses::total          20198                       # number of demand (read+write) misses
system.cpu.dcache.overall_misses::.cpu.data        20200                       # number of overall misses
system.cpu.dcache.overall_misses::total         20200                       # number of overall misses
system.cpu.dcache.demand_miss_latency::.cpu.data    694366491                       # number of demand (read+write) miss cycles
system.cpu.dcache.demand_miss_latency::total    694366491                       # number of demand (read+write) miss cycles
system.cpu.dcache.overall_miss_latency::.cpu.data    694366491                       # number of overall miss cycles
system.cpu.dcache.overall_miss_latency::total    694366491                       # number of overall miss cycles
system.cpu.dcache.demand_accesses::.cpu.data      3198797                       # number of demand (read+write) accesses
system.cpu.dcache.demand_accesses::total      3198797                       # number of demand (read+write) accesses
system.cpu.dcache.overall_accesses::.cpu.data      3198823                       # number of overall (read+write) accesses
system.cpu.dcache.overall_accesses::total      3198823                       # number of overall (read+write) accesses
system.cpu.dcache.demand_miss_rate::.cpu.data     0.006314                       # miss rate for demand accesses
system.cpu.dcache.demand_miss_rate::total     0.006314                       # miss rate for demand accesses
system.cpu.dcache.overall_miss_rate::.cpu.data     0.006315                       # miss rate for overall accesses
system.cpu.dcache.overall_miss_rate::total     0.006315                       # miss rate for overall accesses
system.cpu.dcache.demand_avg_miss_latency::.cpu.data 34377.982523                       # average overall miss latency
system.cpu.dcache.demand_avg_miss_latency::total 34377.982523                       # average overall miss latency
system.cpu.dcache.overall_avg_miss_latency::.cpu.data 34374.578762                       # average overall miss latency
system.cpu.dcache.overall_avg_miss_latency::total 34374.578762                       # average overall miss latency
system.cpu.dcache.blocked_cycles::no_mshrs          223                       # number of cycles access was blocked
system.cpu.dcache.blocked_cycles::no_targets            0                       # number of cycles access was blocked
system.cpu.dcache.blocked::no_mshrs                17                       # number of cycles access was blocked
system.cpu.dcache.blocked::no_targets               0                       # number of cycles access was blocked
system.cpu.dcache.avg_blocked_cycles::no_mshrs    13.117647                       # average number of cycles each access was blocked
system.cpu.dcache.avg_blocked_cycles::no_targets          nan                       # average number of cycles each access was blocked
system.cpu.dcache.writebacks::.writebacks         3549                       # number of writebacks
system.cpu.dcache.writebacks::total              3549                       # number of writebacks
system.cpu.dcache.demand_mshr_hits::.cpu.data        15545                       # number of demand (read+write) MSHR hits
system.cpu.dcache.demand_mshr_hits::total        15545                       # number of demand (read+write) MSHR hits
system.cpu.dcache.overall_mshr_hits::.cpu.data        15545                       # number of overall MSHR hits
system.cpu.dcache.overall_mshr_hits::total        15545                       # number of overall MSHR hits
system.cpu.dcache.demand_mshr_misses::.cpu.data         4653                       # number of demand (read+write) MSHR misses
system.cpu.dcache.demand_mshr_misses::total         4653                       # number of demand (read+write) MSHR misses
system.cpu.dcache.overall_mshr_misses::.cpu.data         4655                       # number of overall MSHR misses
system.cpu.dcache.overall_mshr_misses::total         4655                       # number of overall MSHR misses
system.cpu.dcache.demand_mshr_miss_latency::.cpu.data    122831991                       # number of demand (read+write) MSHR miss cycles
system.cpu.dcache.demand_mshr_miss_latency::total    122831991                       # number of demand (read+write) MSHR miss cycles
system.cpu.dcache.overall_mshr_miss_latency::.cpu.data    122994991                       # number of overall MSHR miss cycles
system.cpu.dcache.overall_mshr_miss_latency::total    122994991                       # number of overall MSHR miss cycles
system.cpu.dcache.demand_mshr_miss_rate::.cpu.data     0.001455                       # mshr miss rate for demand accesses
system.cpu.dcache.demand_mshr_miss_rate::total     0.001455                       # mshr miss rate for demand accesses
system.cpu.dcache.overall_mshr_miss_rate::.cpu.data     0.001455                       # mshr miss rate for overall accesses
system.cpu.dcache.overall_mshr_miss_rate::total     0.001455                       # mshr miss rate for overall accesses
system.cpu.dcache.demand_avg_mshr_miss_latency::.cpu.data 26398.450677                       # average overall mshr miss latency
system.cpu.dcache.demand_avg_mshr_miss_latency::total 26398.450677                       # average overall mshr miss latency
system.cpu.dcache.overall_avg_mshr_miss_latency::.cpu.data 26422.124812                       # average overall mshr miss latency
system.cpu.dcache.overall_avg_mshr_miss_latency::total 26422.124812                       # average overall mshr miss latency
system.cpu.dcache.replacements                   3635                       # number of replacements
system.cpu.dcache.ReadReq_hits::.cpu.data      2573138                       # number of ReadReq hits
system.cpu.dcache.ReadReq_hits::total         2573138                       # number of ReadReq hits
system.cpu.dcache.ReadReq_misses::.cpu.data         9634                       # number of ReadReq misses
system.cpu.dcache.ReadReq_misses::total          9634                       # number of ReadReq misses
system.cpu.dcache.ReadReq_miss_latency::.cpu.data    132797000                       # number of ReadReq miss cycles
system.cpu.dcache.ReadReq_miss_latency::total    132797000                       # number of ReadReq miss cycles
system.cpu.dcache.ReadReq_accesses::.cpu.data      2582772                       # number of ReadReq accesses(hits+misses)
system.cpu.dcache.ReadReq_accesses::total      2582772                       # number of ReadReq accesses(hits+misses)
system.cpu.dcache.ReadReq_miss_rate::.cpu.data     0.003730                       # miss rate for ReadReq accesses
system.cpu.dcache.ReadReq_miss_rate::total     0.003730                       # miss rate for ReadReq accesses
system.cpu.dcache.ReadReq_avg_miss_latency::.cpu.data 13784.201785                       # average ReadReq miss latency
system.cpu.dcache.ReadReq_avg_miss_latency::total 13784.201785                       # average ReadReq miss latency
system.cpu.dcache.ReadReq_mshr_hits::.cpu.data         6439                       # number of ReadReq MSHR hits
system.cpu.dcache.ReadReq_mshr_hits::total         6439                       # number of ReadReq MSHR hits
system.cpu.dcache.ReadReq_mshr_misses::.cpu.data         3195                       # number of ReadReq MSHR misses
system.cpu.dcache.ReadReq_mshr_misses::total         3195                       # number of ReadReq MSHR misses
system.cpu.dcache.ReadReq_mshr_miss_latency::.cpu.data     46204500                       # number of ReadReq MSHR miss cycles
system.cpu.dcache.ReadReq_mshr_miss_latency::total     46204500                       # number of ReadReq MSHR miss cycles
system.cpu.dcache.ReadReq_mshr_miss_rate::.cpu.data     0.001237                       # mshr miss rate for ReadReq accesses
system.cpu.dcache.ReadReq_mshr_miss_rate::total     0.001237                       # mshr miss rate for ReadReq accesses
system.cpu.dcache.ReadReq_avg_mshr_miss_latency::.cpu.data 14461.502347                       # average ReadReq mshr miss latency
system.cpu.dcache.ReadReq_avg_mshr_miss_latency::total 14461.502347                       # average ReadReq mshr miss latency
system.cpu.dcache.WriteReq_hits::.cpu.data       605442                       # number of WriteReq hits
system.cpu.dcache.WriteReq_hits::total         605442                       # number of WriteReq hits
system.cpu.dcache.WriteReq_misses::.cpu.data        10019                       # number of WriteReq misses
system.cpu.dcache.WriteReq_misses::total        10019                       # number of WriteReq misses
system.cpu.dcache.WriteReq_miss_latency::.cpu.data    542437000                       # number of WriteReq miss cycles
system.cpu.dcache.WriteReq_miss_latency::total    542437000                       # number of WriteReq miss cycles
system.cpu.dcache.WriteReq_accesses::.cpu.data       615461                       # number of WriteReq accesses(hits+misses)
system.cpu.dcache.WriteReq_accesses::total       615461                       # number of WriteReq accesses(hits+misses)
system.cpu.dcache.WriteReq_miss_rate::.cpu.data     0.016279                       # miss rate for WriteReq accesses
system.cpu.dcache.WriteReq_miss_rate::total     0.016279                       # miss rate for WriteReq accesses
system.cpu.dcache.WriteReq_avg_miss_latency::.cpu.data 54140.832418                       # average WriteReq miss latency
system.cpu.dcache.WriteReq_avg_miss_latency::total 54140.832418                       # average WriteReq miss latency
system.cpu.dcache.WriteReq_mshr_hits::.cpu.data         9106                       # number of WriteReq MSHR hits
system.cpu.dcache.WriteReq_mshr_hits::total         9106                       # number of WriteReq MSHR hits
system.cpu.dcache.WriteReq_mshr_misses::.cpu.data          913                       # number of WriteReq MSHR misses
system.cpu.dcache.WriteReq_mshr_misses::total          913                       # number of WriteReq MSHR misses
system.cpu.dcache.WriteReq_mshr_miss_latency::.cpu.data     58040000                       # number of WriteReq MSHR miss cycles
system.cpu.dcache.WriteReq_mshr_miss_latency::total     58040000                       # number of WriteReq MSHR miss cycles
system.cpu.dcache.WriteReq_mshr_miss_rate::.cpu.data     0.001483                       # mshr miss rate for WriteReq accesses
system.cpu.dcache.WriteReq_mshr_miss_rate::total     0.001483                       # mshr miss rate for WriteReq accesses
system.cpu.dcache.WriteReq_avg_mshr_miss_latency::.cpu.data 63570.646221                       # average WriteReq mshr miss latency
system.cpu.dcache.WriteReq_avg_mshr_miss_latency::total 63570.646221                       # average WriteReq mshr miss latency
system.cpu.dcache.SoftPFReq_hits::.cpu.data           24                       # number of SoftPFReq hits
system.cpu.dcache.SoftPFReq_hits::total            24                       # number of SoftPFReq hits
system.cpu.dcache.SoftPFReq_misses::.cpu.data            2                       # number of SoftPFReq misses
system.cpu.dcache.SoftPFReq_misses::total            2                       # number of SoftPFReq misses
system.cpu.dcache.SoftPFReq_accesses::.cpu.data           26                       # number of SoftPFReq accesses(hits+misses)
system.cpu.dcache.SoftPFReq_accesses::total           26                       # number of SoftPFReq accesses(hits+misses)
system.cpu.dcache.SoftPFReq_miss_rate::.cpu.data     0.076923                       # miss rate for SoftPFReq accesses
system.cpu.dcache.SoftPFReq_miss_rate::total     0.076923                       # miss rate for SoftPFReq accesses
system.cpu.dcache.SoftPFReq_mshr_misses::.cpu.data            2                       # number of SoftPFReq MSHR misses
system.cpu.dcache.SoftPFReq_mshr_misses::total            2                       # number of SoftPFReq MSHR misses
system.cpu.dcache.SoftPFReq_mshr_miss_latency::.cpu.data       163000                       # number of SoftPFReq MSHR miss cycles
system.cpu.dcache.SoftPFReq_mshr_miss_latency::total       163000                       # number of SoftPFReq MSHR miss cycles
system.cpu.dcache.SoftPFReq_mshr_miss_rate::.cpu.data     0.076923                       # mshr miss rate for SoftPFReq accesses
system.cpu.dcache.SoftPFReq_mshr_miss_rate::total     0.076923                       # mshr miss rate for SoftPFReq accesses
system.cpu.dcache.SoftPFReq_avg_mshr_miss_latency::.cpu.data        81500                       # average SoftPFReq mshr miss latency
system.cpu.dcache.SoftPFReq_avg_mshr_miss_latency::total        81500                       # average SoftPFReq mshr miss latency
system.cpu.dcache.WriteLineReq_hits::.cpu.data           19                       # number of WriteLineReq hits
system.cpu.dcache.WriteLineReq_hits::total           19                       # number of WriteLineReq hits
system.cpu.dcache.WriteLineReq_misses::.cpu.data          545                       # number of WriteLineReq misses
system.cpu.dcache.WriteLineReq_misses::total          545                       # number of WriteLineReq misses
system.cpu.dcache.WriteLineReq_miss_latency::.cpu.data     19132491                       # number of WriteLineReq miss cycles
system.cpu.dcache.WriteLineReq_miss_latency::total     19132491                       # number of WriteLineReq miss cycles
system.cpu.dcache.WriteLineReq_accesses::.cpu.data          564                       # number of WriteLineReq accesses(hits+misses)
system.cpu.dcache.WriteLineReq_accesses::total          564                       # number of WriteLineReq accesses(hits+misses)
system.cpu.dcache.WriteLineReq_miss_rate::.cpu.data     0.966312                       # miss rate for WriteLineReq accesses
system.cpu.dcache.WriteLineReq_miss_rate::total     0.966312                       # miss rate for WriteLineReq accesses
system.cpu.dcache.WriteLineReq_avg_miss_latency::.cpu.data 35105.488073                       # average WriteLineReq miss latency
system.cpu.dcache.WriteLineReq_avg_miss_latency::total 35105.488073                       # average WriteLineReq miss latency
system.cpu.dcache.WriteLineReq_mshr_misses::.cpu.data          545                       # number of WriteLineReq MSHR misses
system.cpu.dcache.WriteLineReq_mshr_misses::total          545                       # number of WriteLineReq MSHR misses
system.cpu.dcache.WriteLineReq_mshr_miss_latency::.cpu.data     18587491                       # number of WriteLineReq MSHR miss cycles
system.cpu.dcache.WriteLineReq_mshr_miss_latency::total     18587491                       # number of WriteLineReq MSHR miss cycles
system.cpu.dcache.WriteLineReq_mshr_miss_rate::.cpu.data     0.966312                       # mshr miss rate for WriteLineReq accesses
system.cpu.dcache.WriteLineReq_mshr_miss_rate::total     0.966312                       # mshr miss rate for WriteLineReq accesses
system.cpu.dcache.WriteLineReq_avg_mshr_miss_latency::.cpu.data 34105.488073                       # average WriteLineReq mshr miss latency
system.cpu.dcache.WriteLineReq_avg_mshr_miss_latency::total 34105.488073                       # average WriteLineReq mshr miss latency
system.cpu.dcache.LoadLockedReq_hits::.cpu.data           53                       # number of LoadLockedReq hits
system.cpu.dcache.LoadLockedReq_hits::total           53                       # number of LoadLockedReq hits
system.cpu.dcache.LoadLockedReq_misses::.cpu.data            3                       # number of LoadLockedReq misses
system.cpu.dcache.LoadLockedReq_misses::total            3                       # number of LoadLockedReq misses
system.cpu.dcache.LoadLockedReq_miss_latency::.cpu.data        27000                       # number of LoadLockedReq miss cycles
system.cpu.dcache.LoadLockedReq_miss_latency::total        27000                       # number of LoadLockedReq miss cycles
system.cpu.dcache.LoadLockedReq_accesses::.cpu.data           56                       # number of LoadLockedReq accesses(hits+misses)
system.cpu.dcache.LoadLockedReq_accesses::total           56                       # number of LoadLockedReq accesses(hits+misses)
system.cpu.dcache.LoadLockedReq_miss_rate::.cpu.data     0.053571                       # miss rate for LoadLockedReq accesses
system.cpu.dcache.LoadLockedReq_miss_rate::total     0.053571                       # miss rate for LoadLockedReq accesses
system.cpu.dcache.LoadLockedReq_avg_miss_latency::.cpu.data         9000                       # average LoadLockedReq miss latency
system.cpu.dcache.LoadLockedReq_avg_miss_latency::total         9000                       # average LoadLockedReq miss latency
system.cpu.dcache.LoadLockedReq_mshr_hits::.cpu.data            3                       # number of LoadLockedReq MSHR hits
system.cpu.dcache.LoadLockedReq_mshr_hits::total            3                       # number of LoadLockedReq MSHR hits
system.cpu.dcache.StoreCondReq_hits::.cpu.data           48                       # number of StoreCondReq hits
system.cpu.dcache.StoreCondReq_hits::total           48                       # number of StoreCondReq hits
system.cpu.dcache.StoreCondReq_accesses::.cpu.data           48                       # number of StoreCondReq accesses(hits+misses)
system.cpu.dcache.StoreCondReq_accesses::total           48                       # number of StoreCondReq accesses(hits+misses)
system.cpu.dcache.power_state.pwrStateResidencyTicks::UNDEFINED   1139173500                       # Cumulative time (in ticks) in various power states
system.cpu.dcache.tags.tagsinuse           978.626255                       # Cycle average of tags in use
system.cpu.dcache.tags.total_refs             3183379                       # Total number of references to valid blocks.
system.cpu.dcache.tags.sampled_refs              4655                       # Sample count of references to valid blocks.
system.cpu.dcache.tags.avg_refs            683.862299                       # Average number of references to valid blocks.
system.cpu.dcache.tags.warmup_cycle            176500                       # Cycle when the warmup percentage was hit.
system.cpu.dcache.tags.occ_blocks::.cpu.data   978.626255                       # Average occupied blocks per requestor
system.cpu.dcache.tags.occ_percent::.cpu.data     0.955690                       # Average percentage of cache occupancy
system.cpu.dcache.tags.occ_percent::total     0.955690                       # Average percentage of cache occupancy
system.cpu.dcache.tags.occ_task_id_blocks::1024         1020                       # Occupied blocks per task id
system.cpu.dcache.tags.age_task_id_blocks_1024::0            4                       # Occupied blocks per task id
system.cpu.dcache.tags.age_task_id_blocks_1024::2           65                       # Occupied blocks per task id
system.cpu.dcache.tags.age_task_id_blocks_1024::3          951                       # Occupied blocks per task id
system.cpu.dcache.tags.occ_task_id_percent::1024     0.996094                       # Percentage of cache occupancy per task id
system.cpu.dcache.tags.tag_accesses           6402509                       # Number of tag accesses
system.cpu.dcache.tags.data_accesses          6402509                       # Number of data accesses
system.cpu.dcache.tags.power_state.pwrStateResidencyTicks::UNDEFINED   1139173500                       # Cumulative time (in ticks) in various power states
system.cpu.power_state.pwrStateResidencyTicks::ON   1139173500                       # Cumulative time (in ticks) in various power states

---------- End Simulation Statistics   ----------
