
---------- Begin Simulation Statistics ----------
final_tick                                 4471607000                       # Number of ticks from beginning of simulation (restored from checkpoints and never reset)
host_inst_rate                                  70825                       # Simulator instruction rate (inst/s)
host_mem_usage                                 891732                       # Number of bytes of host memory used
host_op_rate                                    80307                       # Simulator op (including micro ops) rate (op/s)
host_seconds                                   141.19                       # Real time elapsed on the host
host_tick_rate                               31670312                       # Simulator tick rate (ticks/s)
sim_freq                                 1000000000000                       # Frequency of simulated ticks
sim_insts                                    10000000                       # Number of instructions simulated
sim_ops                                      11338771                       # Number of ops (including micro ops) simulated
sim_seconds                                  0.004472                       # Number of seconds simulated
sim_ticks                                  4471607000                       # Number of ticks simulated
system.cpu.branchPred.BTBCorrect                    0                       # Number of correct BTB predictions (this stat may not work properly.
system.cpu.branchPred.BTBHitPct             99.890082                       # BTB Hit Percentage
system.cpu.branchPred.BTBHits                  916039                       # Number of BTB hits
system.cpu.branchPred.BTBLookups               917047                       # Number of BTB lookups
system.cpu.branchPred.RASInCorrect                  6                       # Number of incorrect RAS predictions.
system.cpu.branchPred.condIncorrect               953                       # Number of conditional branches incorrect
system.cpu.branchPred.condPredicted           1793569                       # Number of conditional branches predicted
system.cpu.branchPred.indirectHits              30308                       # Number of indirect target hits.
system.cpu.branchPred.indirectLookups           30619                       # Number of indirect predictor lookups.
system.cpu.branchPred.indirectMisses              311                       # Number of indirect misses.
system.cpu.branchPred.lookups                 2232573                       # Number of BP lookups
system.cpu.branchPred.usedRAS                  109441                       # Number of times the RAS was used to get a target.
system.cpu.branchPredindirectMispredicted           79                       # Number of mispredicted indirect branches.
system.cpu.cc_regfile_reads                   4685211                       # number of cc regfile reads
system.cpu.cc_regfile_writes                  4442496                       # number of cc regfile writes
system.cpu.commit.amos                              0                       # Number of atomic instructions committed
system.cpu.commit.branchMispredicts               696                       # The number of times a branch was mispredicted
system.cpu.commit.branches                    2221351                       # Number of branches committed
system.cpu.commit.bw_lim_events                486393                       # number cycles where commit BW limit reached
system.cpu.commit.commitNonSpecStalls           12142                       # The number of times commit has been forced to stall to communicate backwards
system.cpu.commit.commitSquashedInsts           44859                       # The number of squashed insts skipped by commit
system.cpu.commit.committedInsts             10006066                       # Number of instructions committed
system.cpu.commit.committedOps               11344837                       # Number of ops (including micro ops) committed
system.cpu.commit.committed_per_cycle::samples      8377038                       # Number of insts commited each cycle
system.cpu.commit.committed_per_cycle::mean     1.354278                       # Number of insts commited each cycle
system.cpu.commit.committed_per_cycle::stdev     2.277104                       # Number of insts commited each cycle
system.cpu.commit.committed_per_cycle::underflows            0      0.00%      0.00% # Number of insts commited each cycle
system.cpu.commit.committed_per_cycle::0      4865591     58.08%     58.08% # Number of insts commited each cycle
system.cpu.commit.committed_per_cycle::1      1285063     15.34%     73.42% # Number of insts commited each cycle
system.cpu.commit.committed_per_cycle::2       649509      7.75%     81.18% # Number of insts commited each cycle
system.cpu.commit.committed_per_cycle::3       351489      4.20%     85.37% # Number of insts commited each cycle
system.cpu.commit.committed_per_cycle::4       295839      3.53%     88.90% # Number of insts commited each cycle
system.cpu.commit.committed_per_cycle::5       145423      1.74%     90.64% # Number of insts commited each cycle
system.cpu.commit.committed_per_cycle::6       179443      2.14%     92.78% # Number of insts commited each cycle
system.cpu.commit.committed_per_cycle::7       118288      1.41%     94.19% # Number of insts commited each cycle
system.cpu.commit.committed_per_cycle::8       486393      5.81%    100.00% # Number of insts commited each cycle
system.cpu.commit.committed_per_cycle::overflows            0      0.00%    100.00% # Number of insts commited each cycle
system.cpu.commit.committed_per_cycle::min_value            0                       # Number of insts commited each cycle
system.cpu.commit.committed_per_cycle::max_value            8                       # Number of insts commited each cycle
system.cpu.commit.committed_per_cycle::total      8377038                       # Number of insts commited each cycle
system.cpu.commit.fp_insts                          0                       # Number of committed floating point instructions.
system.cpu.commit.function_calls               109017                       # Number of function calls committed.
system.cpu.commit.int_insts                   9861989                       # Number of committed integer instructions.
system.cpu.commit.loads                       1710889                       # Number of loads committed
system.cpu.commit.membars                       12120                       # Number of memory barriers committed
system.cpu.commit.op_class_0::No_OpClass         8314      0.07%      0.07% # Class of committed instruction
system.cpu.commit.op_class_0::IntAlu          7690808     67.79%     67.86% # Class of committed instruction
system.cpu.commit.op_class_0::IntMult           60460      0.53%     68.40% # Class of committed instruction
system.cpu.commit.op_class_0::IntDiv                3      0.00%     68.40% # Class of committed instruction
system.cpu.commit.op_class_0::FloatAdd              0      0.00%     68.40% # Class of committed instruction
system.cpu.commit.op_class_0::FloatCmp              0      0.00%     68.40% # Class of committed instruction
system.cpu.commit.op_class_0::FloatCvt              0      0.00%     68.40% # Class of committed instruction
system.cpu.commit.op_class_0::FloatMult             0      0.00%     68.40% # Class of committed instruction
system.cpu.commit.op_class_0::FloatMultAcc            0      0.00%     68.40% # Class of committed instruction
system.cpu.commit.op_class_0::FloatDiv              0      0.00%     68.40% # Class of committed instruction
system.cpu.commit.op_class_0::FloatMisc             0      0.00%     68.40% # Class of committed instruction
system.cpu.commit.op_class_0::FloatSqrt             0      0.00%     68.40% # Class of committed instruction
system.cpu.commit.op_class_0::SimdAdd           18890      0.17%     68.56% # Class of committed instruction
system.cpu.commit.op_class_0::SimdAddAcc            0      0.00%     68.56% # Class of committed instruction
system.cpu.commit.op_class_0::SimdAlu           18886      0.17%     68.73% # Class of committed instruction
system.cpu.commit.op_class_0::SimdCmp           16638      0.15%     68.88% # Class of committed instruction
system.cpu.commit.op_class_0::SimdCvt               0      0.00%     68.88% # Class of committed instruction
system.cpu.commit.op_class_0::SimdMisc          22677      0.20%     69.08% # Class of committed instruction
system.cpu.commit.op_class_0::SimdMult              0      0.00%     69.08% # Class of committed instruction
system.cpu.commit.op_class_0::SimdMultAcc            0      0.00%     69.08% # Class of committed instruction
system.cpu.commit.op_class_0::SimdShift             0      0.00%     69.08% # Class of committed instruction
system.cpu.commit.op_class_0::SimdShiftAcc            0      0.00%     69.08% # Class of committed instruction
system.cpu.commit.op_class_0::SimdDiv               0      0.00%     69.08% # Class of committed instruction
system.cpu.commit.op_class_0::SimdSqrt              0      0.00%     69.08% # Class of committed instruction
system.cpu.commit.op_class_0::SimdFloatAdd            0      0.00%     69.08% # Class of committed instruction
system.cpu.commit.op_class_0::SimdFloatAlu            0      0.00%     69.08% # Class of committed instruction
system.cpu.commit.op_class_0::SimdFloatCmp            0      0.00%     69.08% # Class of committed instruction
system.cpu.commit.op_class_0::SimdFloatCvt            0      0.00%     69.08% # Class of committed instruction
system.cpu.commit.op_class_0::SimdFloatDiv            0      0.00%     69.08% # Class of committed instruction
system.cpu.commit.op_class_0::SimdFloatMisc            0      0.00%     69.08% # Class of committed instruction
system.cpu.commit.op_class_0::SimdFloatMult            0      0.00%     69.08% # Class of committed instruction
system.cpu.commit.op_class_0::SimdFloatMultAcc            0      0.00%     69.08% # Class of committed instruction
system.cpu.commit.op_class_0::SimdFloatSqrt            0      0.00%     69.08% # Class of committed instruction
system.cpu.commit.op_class_0::SimdReduceAdd            0      0.00%     69.08% # Class of committed instruction
system.cpu.commit.op_class_0::SimdReduceAlu            0      0.00%     69.08% # Class of committed instruction
system.cpu.commit.op_class_0::SimdReduceCmp            0      0.00%     69.08% # Class of committed instruction
system.cpu.commit.op_class_0::SimdFloatReduceAdd            0      0.00%     69.08% # Class of committed instruction
system.cpu.commit.op_class_0::SimdFloatReduceCmp            0      0.00%     69.08% # Class of committed instruction
system.cpu.commit.op_class_0::SimdAes               0      0.00%     69.08% # Class of committed instruction
system.cpu.commit.op_class_0::SimdAesMix            0      0.00%     69.08% # Class of committed instruction
system.cpu.commit.op_class_0::SimdSha1Hash            0      0.00%     69.08% # Class of committed instruction
system.cpu.commit.op_class_0::SimdSha1Hash2            0      0.00%     69.08% # Class of committed instruction
system.cpu.commit.op_class_0::SimdSha256Hash            0      0.00%     69.08% # Class of committed instruction
system.cpu.commit.op_class_0::SimdSha256Hash2            0      0.00%     69.08% # Class of committed instruction
system.cpu.commit.op_class_0::SimdShaSigma2            0      0.00%     69.08% # Class of committed instruction
system.cpu.commit.op_class_0::SimdShaSigma3            0      0.00%     69.08% # Class of committed instruction
system.cpu.commit.op_class_0::SimdPredAlu            0      0.00%     69.08% # Class of committed instruction
system.cpu.commit.op_class_0::MemRead         1710889     15.08%     84.16% # Class of committed instruction
system.cpu.commit.op_class_0::MemWrite        1797272     15.84%    100.00% # Class of committed instruction
system.cpu.commit.op_class_0::FloatMemRead            0      0.00%    100.00% # Class of committed instruction
system.cpu.commit.op_class_0::FloatMemWrite            0      0.00%    100.00% # Class of committed instruction
system.cpu.commit.op_class_0::IprAccess             0      0.00%    100.00% # Class of committed instruction
system.cpu.commit.op_class_0::InstPrefetch            0      0.00%    100.00% # Class of committed instruction
system.cpu.commit.op_class_0::total          11344837                       # Class of committed instruction
system.cpu.commit.refs                        3508161                       # Number of memory references committed
system.cpu.commit.swp_count                         0                       # Number of s/w prefetches committed
system.cpu.commit.vec_insts                    198825                       # Number of committed Vector instructions.
system.cpu.committedInsts                    10000000                       # Number of Instructions Simulated
system.cpu.committedOps                      11338771                       # Number of Ops (including micro ops) Simulated
system.cpu.cpi                               0.894321                       # CPI: Cycles Per Instruction
system.cpu.cpi_total                         0.894321                       # CPI: Total CPI of All Threads
system.cpu.decode.BlockedCycles               2582989                       # Number of cycles decode is blocked
system.cpu.decode.BranchMispred                   261                       # Number of times decode detected a branch misprediction
system.cpu.decode.BranchResolved               914973                       # Number of times decode resolved a branch
system.cpu.decode.DecodedInsts               11403590                       # Number of instructions handled by decode
system.cpu.decode.IdleCycles                  3574544                       # Number of cycles decode is idle
system.cpu.decode.RunCycles                   2175012                       # Number of cycles decode is running
system.cpu.decode.SquashCycles                   1370                       # Number of cycles decode is squashing
system.cpu.decode.SquashedInsts                   957                       # Number of squashed instructions handled by decode
system.cpu.decode.UnblockCycles                 49350                       # Number of cycles decode is unblocking
system.cpu.dtb.accesses                             0                       # DTB accesses
system.cpu.dtb.align_faults                         0                       # Number of TLB faults due to alignment restrictions
system.cpu.dtb.domain_faults                        0                       # Number of TLB faults due to domain restrictions
system.cpu.dtb.flush_entries                        0                       # Number of entries that have been flushed from TLB
system.cpu.dtb.flush_tlb                            0                       # Number of times complete TLB was flushed
system.cpu.dtb.flush_tlb_asid                       0                       # Number of times TLB was flushed by ASID
system.cpu.dtb.flush_tlb_mva                        0                       # Number of times TLB was flushed by MVA
system.cpu.dtb.flush_tlb_mva_asid                   0                       # Number of times TLB was flushed by MVA & ASID
system.cpu.dtb.hits                                 0                       # DTB hits
system.cpu.dtb.inst_accesses                        0                       # ITB inst accesses
system.cpu.dtb.inst_hits                            0                       # ITB inst hits
system.cpu.dtb.inst_misses                          0                       # ITB inst misses
system.cpu.dtb.misses                               0                       # DTB misses
system.cpu.dtb.perms_faults                         0                       # Number of TLB faults due to permissions restrictions
system.cpu.dtb.prefetch_faults                      0                       # Number of TLB faults due to prefetch
system.cpu.dtb.read_accesses                        0                       # DTB read accesses
system.cpu.dtb.read_hits                            0                       # DTB read hits
system.cpu.dtb.read_misses                          0                       # DTB read misses
system.cpu.dtb.stage2_mmu.stage2_tlb.accesses            0                       # DTB accesses
system.cpu.dtb.stage2_mmu.stage2_tlb.align_faults            0                       # Number of TLB faults due to alignment restrictions
system.cpu.dtb.stage2_mmu.stage2_tlb.domain_faults            0                       # Number of TLB faults due to domain restrictions
system.cpu.dtb.stage2_mmu.stage2_tlb.flush_entries            0                       # Number of entries that have been flushed from TLB
system.cpu.dtb.stage2_mmu.stage2_tlb.flush_tlb            0                       # Number of times complete TLB was flushed
system.cpu.dtb.stage2_mmu.stage2_tlb.flush_tlb_asid            0                       # Number of times TLB was flushed by ASID
system.cpu.dtb.stage2_mmu.stage2_tlb.flush_tlb_mva            0                       # Number of times TLB was flushed by MVA
system.cpu.dtb.stage2_mmu.stage2_tlb.flush_tlb_mva_asid            0                       # Number of times TLB was flushed by MVA & ASID
system.cpu.dtb.stage2_mmu.stage2_tlb.hits            0                       # DTB hits
system.cpu.dtb.stage2_mmu.stage2_tlb.inst_accesses            0                       # ITB inst accesses
system.cpu.dtb.stage2_mmu.stage2_tlb.inst_hits            0                       # ITB inst hits
system.cpu.dtb.stage2_mmu.stage2_tlb.inst_misses            0                       # ITB inst misses
system.cpu.dtb.stage2_mmu.stage2_tlb.misses            0                       # DTB misses
system.cpu.dtb.stage2_mmu.stage2_tlb.perms_faults            0                       # Number of TLB faults due to permissions restrictions
system.cpu.dtb.stage2_mmu.stage2_tlb.prefetch_faults            0                       # Number of TLB faults due to prefetch
system.cpu.dtb.stage2_mmu.stage2_tlb.read_accesses            0                       # DTB read accesses
system.cpu.dtb.stage2_mmu.stage2_tlb.read_hits            0                       # DTB read hits
system.cpu.dtb.stage2_mmu.stage2_tlb.read_misses            0                       # DTB read misses
system.cpu.dtb.stage2_mmu.stage2_tlb.walker.walkRequestOrigin_Requested::Data            0                       # Table walker requests started/completed, data/inst
system.cpu.dtb.stage2_mmu.stage2_tlb.walker.walkRequestOrigin_Requested::Inst            0                       # Table walker requests started/completed, data/inst
system.cpu.dtb.stage2_mmu.stage2_tlb.walker.walkRequestOrigin_Requested::total            0                       # Table walker requests started/completed, data/inst
system.cpu.dtb.stage2_mmu.stage2_tlb.walker.walkRequestOrigin_Completed::Data            0                       # Table walker requests started/completed, data/inst
system.cpu.dtb.stage2_mmu.stage2_tlb.walker.walkRequestOrigin_Completed::Inst            0                       # Table walker requests started/completed, data/inst
system.cpu.dtb.stage2_mmu.stage2_tlb.walker.walkRequestOrigin_Completed::total            0                       # Table walker requests started/completed, data/inst
system.cpu.dtb.stage2_mmu.stage2_tlb.walker.walkRequestOrigin::total            0                       # Table walker requests started/completed, data/inst
system.cpu.dtb.stage2_mmu.stage2_tlb.walker.walks            0                       # Table walker walks requested
system.cpu.dtb.stage2_mmu.stage2_tlb.write_accesses            0                       # DTB write accesses
system.cpu.dtb.stage2_mmu.stage2_tlb.write_hits            0                       # DTB write hits
system.cpu.dtb.stage2_mmu.stage2_tlb.write_misses            0                       # DTB write misses
system.cpu.dtb.walker.walkRequestOrigin_Requested::Data            0                       # Table walker requests started/completed, data/inst
system.cpu.dtb.walker.walkRequestOrigin_Requested::Inst            0                       # Table walker requests started/completed, data/inst
system.cpu.dtb.walker.walkRequestOrigin_Requested::total            0                       # Table walker requests started/completed, data/inst
system.cpu.dtb.walker.walkRequestOrigin_Completed::Data            0                       # Table walker requests started/completed, data/inst
system.cpu.dtb.walker.walkRequestOrigin_Completed::Inst            0                       # Table walker requests started/completed, data/inst
system.cpu.dtb.walker.walkRequestOrigin_Completed::total            0                       # Table walker requests started/completed, data/inst
system.cpu.dtb.walker.walkRequestOrigin::total            0                       # Table walker requests started/completed, data/inst
system.cpu.dtb.walker.walks                         0                       # Table walker walks requested
system.cpu.dtb.write_accesses                       0                       # DTB write accesses
system.cpu.dtb.write_hits                           0                       # DTB write hits
system.cpu.dtb.write_misses                         0                       # DTB write misses
system.cpu.fetch.Branches                     2232573                       # Number of branches that fetch encountered
system.cpu.fetch.CacheLines                   1486689                       # Number of cache lines fetched
system.cpu.fetch.Cycles                       4417857                       # Number of cycles fetch has run and was not squashing or blocked
system.cpu.fetch.IcacheSquashes                   745                       # Number of outstanding Icache misses that were squashed
system.cpu.fetch.Insts                       10080633                       # Number of instructions fetch has processed
system.cpu.fetch.SquashCycles                    3254                       # Number of cycles fetch has spent squashing
system.cpu.fetch.branchRate                  0.249639                       # Number of branch fetches per cycle
system.cpu.fetch.icacheStallCycles            3963781                       # Number of cycles fetch is stalled on an Icache miss
system.cpu.fetch.predictedBranches            1055788                       # Number of branches that fetch has predicted taken
system.cpu.fetch.rate                        1.127182                       # Number of inst fetches per cycle
system.cpu.fetch.rateDist::samples            8383265                       # Number of instructions fetched each cycle (Total)
system.cpu.fetch.rateDist::mean              1.363635                       # Number of instructions fetched each cycle (Total)
system.cpu.fetch.rateDist::stdev             2.604899                       # Number of instructions fetched each cycle (Total)
system.cpu.fetch.rateDist::underflows               0      0.00%      0.00% # Number of instructions fetched each cycle (Total)
system.cpu.fetch.rateDist::0                  6116756     72.96%     72.96% # Number of instructions fetched each cycle (Total)
system.cpu.fetch.rateDist::1                   236918      2.83%     75.79% # Number of instructions fetched each cycle (Total)
system.cpu.fetch.rateDist::2                   210495      2.51%     78.30% # Number of instructions fetched each cycle (Total)
system.cpu.fetch.rateDist::3                   291376      3.48%     81.78% # Number of instructions fetched each cycle (Total)
system.cpu.fetch.rateDist::4                   375627      4.48%     86.26% # Number of instructions fetched each cycle (Total)
system.cpu.fetch.rateDist::5                   199872      2.38%     88.64% # Number of instructions fetched each cycle (Total)
system.cpu.fetch.rateDist::6                    61190      0.73%     89.37% # Number of instructions fetched each cycle (Total)
system.cpu.fetch.rateDist::7                    97575      1.16%     90.54% # Number of instructions fetched each cycle (Total)
system.cpu.fetch.rateDist::8                   793456      9.46%    100.00% # Number of instructions fetched each cycle (Total)
system.cpu.fetch.rateDist::overflows                0      0.00%    100.00% # Number of instructions fetched each cycle (Total)
system.cpu.fetch.rateDist::min_value                0                       # Number of instructions fetched each cycle (Total)
system.cpu.fetch.rateDist::max_value                8                       # Number of instructions fetched each cycle (Total)
system.cpu.fetch.rateDist::total              8383265                       # Number of instructions fetched each cycle (Total)
system.cpu.icache.prefetcher.num_hwpf_issued       458151                       # number of hwpf issued
system.cpu.icache.prefetcher.pfBufferHit      1617083                       # number of redundant prefetches already in prefetch queue
system.cpu.icache.prefetcher.pfIdentified      2251416                       # number of prefetch candidates identified
system.cpu.icache.prefetcher.pfInCache              0                       # number of redundant prefetches already in cache/mshr dropped
system.cpu.icache.prefetcher.pfRemovedFull            0                       # number of prefetches dropped due to prefetch queue size
system.cpu.icache.prefetcher.pfSpanPage       5069148                       # number of prefetches that crossed the page
system.cpu.idleCycles                          559950                       # Total number of cycles that the CPU has spent unscheduled due to idling
system.cpu.iew.branchMispredicts                  821                       # Number of branch mispredicts detected at execute
system.cpu.iew.exec_branches                  2225080                       # Number of branches executed
system.cpu.iew.exec_nop                          6096                       # number of nop insts executed
system.cpu.iew.exec_rate                     1.282950                       # Inst execution rate
system.cpu.iew.exec_refs                      3620263                       # number of memory reference insts executed
system.cpu.iew.exec_stores                    1813170                       # Number of stores executed
system.cpu.iew.exec_swp                             0                       # number of swp insts executed
system.cpu.iew.iewBlockCycles                    5113                       # Number of cycles IEW is blocking
system.cpu.iew.iewDispLoadInsts               1716929                       # Number of dispatched load instructions
system.cpu.iew.iewDispNonSpecInsts              12171                       # Number of dispatched non-speculative instructions
system.cpu.iew.iewDispSquashedInsts               409                       # Number of squashed instructions skipped by dispatch
system.cpu.iew.iewDispStoreInsts              1814939                       # Number of dispatched store instructions
system.cpu.iew.iewDispatchedInsts            11395109                       # Number of instructions dispatched to IQ
system.cpu.iew.iewExecLoadInsts               1807093                       # Number of load instructions executed
system.cpu.iew.iewExecSquashedInsts               966                       # Number of squashed instructions skipped in execute
system.cpu.iew.iewExecutedInsts              11473700                       # Number of executed instructions
system.cpu.iew.iewIQFullEvents                      9                       # Number of times the IQ has become full, causing a stall
system.cpu.iew.iewIdleCycles                        0                       # Number of cycles IEW is idle
system.cpu.iew.iewLSQFullEvents                 92208                       # Number of times the LSQ has become full, causing a stall
system.cpu.iew.iewSquashCycles                   1370                       # Number of cycles IEW is squashing
system.cpu.iew.iewUnblockCycles                 92064                       # Number of cycles IEW is unblocking
system.cpu.iew.lsq.thread0.blockedLoads             0                       # Number of blocked loads due to partial load-store forwarding
system.cpu.iew.lsq.thread0.cacheBlocked             0                       # Number of times an access to memory failed due to the cache being blocked
system.cpu.iew.lsq.thread0.forwLoads            84638                       # Number of loads that had data forwarded from stores
system.cpu.iew.lsq.thread0.ignoredResponses            2                       # Number of memory responses ignored because the instruction is squashed
system.cpu.iew.lsq.thread0.invAddrLoads             0                       # Number of loads ignored due to an invalid address
system.cpu.iew.lsq.thread0.invAddrSwpfs             0                       # Number of software prefetches ignored due to an invalid address
system.cpu.iew.lsq.thread0.memOrderViolation           61                       # Number of memory ordering violations
system.cpu.iew.lsq.thread0.rescheduledLoads        90726                       # Number of loads that were rescheduled
system.cpu.iew.lsq.thread0.squashedLoads         6039                       # Number of loads squashed
system.cpu.iew.lsq.thread0.squashedStores        17666                       # Number of stores squashed
system.cpu.iew.memOrderViolationEvents             61                       # Number of memory order violations
system.cpu.iew.predictedNotTakenIncorrect          698                       # Number of branches that were predicted not taken incorrectly
system.cpu.iew.predictedTakenIncorrect            123                       # Number of branches that were predicted taken incorrectly
system.cpu.iew.wb_consumers                  10515353                       # num instructions consuming a value
system.cpu.iew.wb_count                      11378305                       # cumulative count of insts written-back
system.cpu.iew.wb_fanout                     0.525602                       # average fanout of values written-back
system.cpu.iew.wb_producers                   5526895                       # num instructions producing a value
system.cpu.iew.wb_rate                       1.272284                       # insts written-back per cycle
system.cpu.iew.wb_sent                       11381761                       # cumulative count of insts sent to commit
system.cpu.int_regfile_reads                 13060219                       # number of integer regfile reads
system.cpu.int_regfile_writes                 7579332                       # number of integer regfile writes
system.cpu.ipc                               1.118166                       # IPC: Instructions Per Cycle
system.cpu.ipc_total                         1.118166                       # IPC: Total IPC of All Threads
system.cpu.iq.FU_type_0::No_OpClass              8328      0.07%      0.07% # Type of FU issued
system.cpu.iq.FU_type_0::IntAlu               7707904     67.17%     67.25% # Type of FU issued
system.cpu.iq.FU_type_0::IntMult                60466      0.53%     67.77% # Type of FU issued
system.cpu.iq.FU_type_0::IntDiv                     3      0.00%     67.77% # Type of FU issued
system.cpu.iq.FU_type_0::FloatAdd                   0      0.00%     67.77% # Type of FU issued
system.cpu.iq.FU_type_0::FloatCmp                   0      0.00%     67.77% # Type of FU issued
system.cpu.iq.FU_type_0::FloatCvt                   0      0.00%     67.77% # Type of FU issued
system.cpu.iq.FU_type_0::FloatMult                  0      0.00%     67.77% # Type of FU issued
system.cpu.iq.FU_type_0::FloatMultAcc               0      0.00%     67.77% # Type of FU issued
system.cpu.iq.FU_type_0::FloatDiv                   0      0.00%     67.77% # Type of FU issued
system.cpu.iq.FU_type_0::FloatMisc                  0      0.00%     67.77% # Type of FU issued
system.cpu.iq.FU_type_0::FloatSqrt                  0      0.00%     67.77% # Type of FU issued
system.cpu.iq.FU_type_0::SimdAdd                18933      0.16%     67.94% # Type of FU issued
system.cpu.iq.FU_type_0::SimdAddAcc                 0      0.00%     67.94% # Type of FU issued
system.cpu.iq.FU_type_0::SimdAlu                18930      0.16%     68.10% # Type of FU issued
system.cpu.iq.FU_type_0::SimdCmp                16666      0.15%     68.25% # Type of FU issued
system.cpu.iq.FU_type_0::SimdCvt                    0      0.00%     68.25% # Type of FU issued
system.cpu.iq.FU_type_0::SimdMisc               22722      0.20%     68.45% # Type of FU issued
system.cpu.iq.FU_type_0::SimdMult                   0      0.00%     68.45% # Type of FU issued
system.cpu.iq.FU_type_0::SimdMultAcc                0      0.00%     68.45% # Type of FU issued
system.cpu.iq.FU_type_0::SimdShift                  0      0.00%     68.45% # Type of FU issued
system.cpu.iq.FU_type_0::SimdShiftAcc               0      0.00%     68.45% # Type of FU issued
system.cpu.iq.FU_type_0::SimdDiv                    0      0.00%     68.45% # Type of FU issued
system.cpu.iq.FU_type_0::SimdSqrt                   0      0.00%     68.45% # Type of FU issued
system.cpu.iq.FU_type_0::SimdFloatAdd               0      0.00%     68.45% # Type of FU issued
system.cpu.iq.FU_type_0::SimdFloatAlu               0      0.00%     68.45% # Type of FU issued
system.cpu.iq.FU_type_0::SimdFloatCmp               0      0.00%     68.45% # Type of FU issued
system.cpu.iq.FU_type_0::SimdFloatCvt               0      0.00%     68.45% # Type of FU issued
system.cpu.iq.FU_type_0::SimdFloatDiv               0      0.00%     68.45% # Type of FU issued
system.cpu.iq.FU_type_0::SimdFloatMisc              0      0.00%     68.45% # Type of FU issued
system.cpu.iq.FU_type_0::SimdFloatMult              0      0.00%     68.45% # Type of FU issued
system.cpu.iq.FU_type_0::SimdFloatMultAcc            0      0.00%     68.45% # Type of FU issued
system.cpu.iq.FU_type_0::SimdFloatSqrt              0      0.00%     68.45% # Type of FU issued
system.cpu.iq.FU_type_0::SimdReduceAdd              0      0.00%     68.45% # Type of FU issued
system.cpu.iq.FU_type_0::SimdReduceAlu              0      0.00%     68.45% # Type of FU issued
system.cpu.iq.FU_type_0::SimdReduceCmp              0      0.00%     68.45% # Type of FU issued
system.cpu.iq.FU_type_0::SimdFloatReduceAdd            0      0.00%     68.45% # Type of FU issued
system.cpu.iq.FU_type_0::SimdFloatReduceCmp            0      0.00%     68.45% # Type of FU issued
system.cpu.iq.FU_type_0::SimdAes                    0      0.00%     68.45% # Type of FU issued
system.cpu.iq.FU_type_0::SimdAesMix                 0      0.00%     68.45% # Type of FU issued
system.cpu.iq.FU_type_0::SimdSha1Hash               0      0.00%     68.45% # Type of FU issued
system.cpu.iq.FU_type_0::SimdSha1Hash2              0      0.00%     68.45% # Type of FU issued
system.cpu.iq.FU_type_0::SimdSha256Hash             0      0.00%     68.45% # Type of FU issued
system.cpu.iq.FU_type_0::SimdSha256Hash2            0      0.00%     68.45% # Type of FU issued
system.cpu.iq.FU_type_0::SimdShaSigma2              0      0.00%     68.45% # Type of FU issued
system.cpu.iq.FU_type_0::SimdShaSigma3              0      0.00%     68.45% # Type of FU issued
system.cpu.iq.FU_type_0::SimdPredAlu                0      0.00%     68.45% # Type of FU issued
system.cpu.iq.FU_type_0::MemRead              1807316     15.75%     84.20% # Type of FU issued
system.cpu.iq.FU_type_0::MemWrite             1813404     15.80%    100.00% # Type of FU issued
system.cpu.iq.FU_type_0::FloatMemRead               0      0.00%    100.00% # Type of FU issued
system.cpu.iq.FU_type_0::FloatMemWrite              0      0.00%    100.00% # Type of FU issued
system.cpu.iq.FU_type_0::IprAccess                  0      0.00%    100.00% # Type of FU issued
system.cpu.iq.FU_type_0::InstPrefetch               0      0.00%    100.00% # Type of FU issued
system.cpu.iq.FU_type_0::total               11474672                       # Type of FU issued
system.cpu.iq.fp_alu_accesses                       0                       # Number of floating point alu accesses
system.cpu.iq.fp_inst_queue_reads                   0                       # Number of floating instruction queue reads
system.cpu.iq.fp_inst_queue_wakeup_accesses            0                       # Number of floating instruction queue wakeup accesses
system.cpu.iq.fp_inst_queue_writes                  0                       # Number of floating instruction queue writes
system.cpu.iq.fu_busy_cnt                      235982                       # FU busy when requested
system.cpu.iq.fu_busy_rate                   0.020565                       # FU busy rate (busy events/executed inst)
system.cpu.iq.fu_full::No_OpClass                   0      0.00%      0.00% # attempts to use FU when none available
system.cpu.iq.fu_full::IntAlu                   30466     12.91%     12.91% # attempts to use FU when none available
system.cpu.iq.fu_full::IntMult                      0      0.00%     12.91% # attempts to use FU when none available
system.cpu.iq.fu_full::IntDiv                       0      0.00%     12.91% # attempts to use FU when none available
system.cpu.iq.fu_full::FloatAdd                     0      0.00%     12.91% # attempts to use FU when none available
system.cpu.iq.fu_full::FloatCmp                     0      0.00%     12.91% # attempts to use FU when none available
system.cpu.iq.fu_full::FloatCvt                     0      0.00%     12.91% # attempts to use FU when none available
system.cpu.iq.fu_full::FloatMult                    0      0.00%     12.91% # attempts to use FU when none available
system.cpu.iq.fu_full::FloatMultAcc                 0      0.00%     12.91% # attempts to use FU when none available
system.cpu.iq.fu_full::FloatDiv                     0      0.00%     12.91% # attempts to use FU when none available
system.cpu.iq.fu_full::FloatMisc                    0      0.00%     12.91% # attempts to use FU when none available
system.cpu.iq.fu_full::FloatSqrt                    0      0.00%     12.91% # attempts to use FU when none available
system.cpu.iq.fu_full::SimdAdd                      0      0.00%     12.91% # attempts to use FU when none available
system.cpu.iq.fu_full::SimdAddAcc                   0      0.00%     12.91% # attempts to use FU when none available
system.cpu.iq.fu_full::SimdAlu                      2      0.00%     12.91% # attempts to use FU when none available
system.cpu.iq.fu_full::SimdCmp                      2      0.00%     12.91% # attempts to use FU when none available
system.cpu.iq.fu_full::SimdCvt                      0      0.00%     12.91% # attempts to use FU when none available
system.cpu.iq.fu_full::SimdMisc                     0      0.00%     12.91% # attempts to use FU when none available
system.cpu.iq.fu_full::SimdMult                     0      0.00%     12.91% # attempts to use FU when none available
system.cpu.iq.fu_full::SimdMultAcc                  0      0.00%     12.91% # attempts to use FU when none available
system.cpu.iq.fu_full::SimdShift                    0      0.00%     12.91% # attempts to use FU when none available
system.cpu.iq.fu_full::SimdShiftAcc                 0      0.00%     12.91% # attempts to use FU when none available
system.cpu.iq.fu_full::SimdDiv                      0      0.00%     12.91% # attempts to use FU when none available
system.cpu.iq.fu_full::SimdSqrt                     0      0.00%     12.91% # attempts to use FU when none available
system.cpu.iq.fu_full::SimdFloatAdd                 0      0.00%     12.91% # attempts to use FU when none available
system.cpu.iq.fu_full::SimdFloatAlu                 0      0.00%     12.91% # attempts to use FU when none available
system.cpu.iq.fu_full::SimdFloatCmp                 0      0.00%     12.91% # attempts to use FU when none available
system.cpu.iq.fu_full::SimdFloatCvt                 0      0.00%     12.91% # attempts to use FU when none available
system.cpu.iq.fu_full::SimdFloatDiv                 0      0.00%     12.91% # attempts to use FU when none available
system.cpu.iq.fu_full::SimdFloatMisc                0      0.00%     12.91% # attempts to use FU when none available
system.cpu.iq.fu_full::SimdFloatMult                0      0.00%     12.91% # attempts to use FU when none available
system.cpu.iq.fu_full::SimdFloatMultAcc             0      0.00%     12.91% # attempts to use FU when none available
system.cpu.iq.fu_full::SimdFloatSqrt                0      0.00%     12.91% # attempts to use FU when none available
system.cpu.iq.fu_full::SimdReduceAdd                0      0.00%     12.91% # attempts to use FU when none available
system.cpu.iq.fu_full::SimdReduceAlu                0      0.00%     12.91% # attempts to use FU when none available
system.cpu.iq.fu_full::SimdReduceCmp                0      0.00%     12.91% # attempts to use FU when none available
system.cpu.iq.fu_full::SimdFloatReduceAdd            0      0.00%     12.91% # attempts to use FU when none available
system.cpu.iq.fu_full::SimdFloatReduceCmp            0      0.00%     12.91% # attempts to use FU when none available
system.cpu.iq.fu_full::SimdAes                      0      0.00%     12.91% # attempts to use FU when none available
system.cpu.iq.fu_full::SimdAesMix                   0      0.00%     12.91% # attempts to use FU when none available
system.cpu.iq.fu_full::SimdSha1Hash                 0      0.00%     12.91% # attempts to use FU when none available
system.cpu.iq.fu_full::SimdSha1Hash2                0      0.00%     12.91% # attempts to use FU when none available
system.cpu.iq.fu_full::SimdSha256Hash               0      0.00%     12.91% # attempts to use FU when none available
system.cpu.iq.fu_full::SimdSha256Hash2              0      0.00%     12.91% # attempts to use FU when none available
system.cpu.iq.fu_full::SimdShaSigma2                0      0.00%     12.91% # attempts to use FU when none available
system.cpu.iq.fu_full::SimdShaSigma3                0      0.00%     12.91% # attempts to use FU when none available
system.cpu.iq.fu_full::SimdPredAlu                  0      0.00%     12.91% # attempts to use FU when none available
system.cpu.iq.fu_full::MemRead                  57868     24.52%     37.43% # attempts to use FU when none available
system.cpu.iq.fu_full::MemWrite                147644     62.57%    100.00% # attempts to use FU when none available
system.cpu.iq.fu_full::FloatMemRead                 0      0.00%    100.00% # attempts to use FU when none available
system.cpu.iq.fu_full::FloatMemWrite                0      0.00%    100.00% # attempts to use FU when none available
system.cpu.iq.fu_full::IprAccess                    0      0.00%    100.00% # attempts to use FU when none available
system.cpu.iq.fu_full::InstPrefetch                 0      0.00%    100.00% # attempts to use FU when none available
system.cpu.iq.int_alu_accesses               11487325                       # Number of integer alu accesses
system.cpu.iq.int_inst_queue_reads           31146194                       # Number of integer instruction queue reads
system.cpu.iq.int_inst_queue_wakeup_accesses     11179246                       # Number of integer instruction queue wakeup accesses
system.cpu.iq.int_inst_queue_writes          11239189                       # Number of integer instruction queue writes
system.cpu.iq.iqInstsAdded                   11376842                       # Number of instructions added to the IQ (excludes non-spec)
system.cpu.iq.iqInstsIssued                  11474672                       # Number of instructions issued
system.cpu.iq.iqNonSpecInstsAdded               12171                       # Number of non-speculative instructions added to the IQ
system.cpu.iq.iqSquashedInstsExamined           50229                       # Number of squashed instructions iterated over during squash; mainly for profiling
system.cpu.iq.iqSquashedInstsIssued               107                       # Number of squashed instructions issued
system.cpu.iq.iqSquashedNonSpecRemoved             29                       # Number of squashed non-spec instructions that were removed
system.cpu.iq.iqSquashedOperandsExamined        17902                       # Number of squashed operands that are examined and possibly removed from graph
system.cpu.iq.issued_per_cycle::samples       8383265                       # Number of insts issued each cycle
system.cpu.iq.issued_per_cycle::mean         1.368759                       # Number of insts issued each cycle
system.cpu.iq.issued_per_cycle::stdev        1.959437                       # Number of insts issued each cycle
system.cpu.iq.issued_per_cycle::underflows            0      0.00%      0.00% # Number of insts issued each cycle
system.cpu.iq.issued_per_cycle::0             4679927     55.82%     55.82% # Number of insts issued each cycle
system.cpu.iq.issued_per_cycle::1              848651     10.12%     65.95% # Number of insts issued each cycle
system.cpu.iq.issued_per_cycle::2              845534     10.09%     76.03% # Number of insts issued each cycle
system.cpu.iq.issued_per_cycle::3              669535      7.99%     84.02% # Number of insts issued each cycle
system.cpu.iq.issued_per_cycle::4              500436      5.97%     89.99% # Number of insts issued each cycle
system.cpu.iq.issued_per_cycle::5              354694      4.23%     94.22% # Number of insts issued each cycle
system.cpu.iq.issued_per_cycle::6              313046      3.73%     97.95% # Number of insts issued each cycle
system.cpu.iq.issued_per_cycle::7               98678      1.18%     99.13% # Number of insts issued each cycle
system.cpu.iq.issued_per_cycle::8               72764      0.87%    100.00% # Number of insts issued each cycle
system.cpu.iq.issued_per_cycle::overflows            0      0.00%    100.00% # Number of insts issued each cycle
system.cpu.iq.issued_per_cycle::min_value            0                       # Number of insts issued each cycle
system.cpu.iq.issued_per_cycle::max_value            8                       # Number of insts issued each cycle
system.cpu.iq.issued_per_cycle::total         8383265                       # Number of insts issued each cycle
system.cpu.iq.rate                           1.283059                       # Inst issue rate
system.cpu.iq.vec_alu_accesses                 215001                       # Number of vector alu accesses
system.cpu.iq.vec_inst_queue_reads             422498                       # Number of vector instruction queue reads
system.cpu.iq.vec_inst_queue_wakeup_accesses       199059                       # Number of vector instruction queue wakeup accesses
system.cpu.iq.vec_inst_queue_writes            200113                       # Number of vector instruction queue writes
system.cpu.itb.accesses                             0                       # DTB accesses
system.cpu.itb.align_faults                         0                       # Number of TLB faults due to alignment restrictions
system.cpu.itb.domain_faults                        0                       # Number of TLB faults due to domain restrictions
system.cpu.itb.flush_entries                        0                       # Number of entries that have been flushed from TLB
system.cpu.itb.flush_tlb                            0                       # Number of times complete TLB was flushed
system.cpu.itb.flush_tlb_asid                       0                       # Number of times TLB was flushed by ASID
system.cpu.itb.flush_tlb_mva                        0                       # Number of times TLB was flushed by MVA
system.cpu.itb.flush_tlb_mva_asid                   0                       # Number of times TLB was flushed by MVA & ASID
system.cpu.itb.hits                                 0                       # DTB hits
system.cpu.itb.inst_accesses                        0                       # ITB inst accesses
system.cpu.itb.inst_hits                            0                       # ITB inst hits
system.cpu.itb.inst_misses                          0                       # ITB inst misses
system.cpu.itb.misses                               0                       # DTB misses
system.cpu.itb.perms_faults                         0                       # Number of TLB faults due to permissions restrictions
system.cpu.itb.prefetch_faults                      0                       # Number of TLB faults due to prefetch
system.cpu.itb.read_accesses                        0                       # DTB read accesses
system.cpu.itb.read_hits                            0                       # DTB read hits
system.cpu.itb.read_misses                          0                       # DTB read misses
system.cpu.itb.stage2_mmu.stage2_tlb.accesses            0                       # DTB accesses
system.cpu.itb.stage2_mmu.stage2_tlb.align_faults            0                       # Number of TLB faults due to alignment restrictions
system.cpu.itb.stage2_mmu.stage2_tlb.domain_faults            0                       # Number of TLB faults due to domain restrictions
system.cpu.itb.stage2_mmu.stage2_tlb.flush_entries            0                       # Number of entries that have been flushed from TLB
system.cpu.itb.stage2_mmu.stage2_tlb.flush_tlb            0                       # Number of times complete TLB was flushed
system.cpu.itb.stage2_mmu.stage2_tlb.flush_tlb_asid            0                       # Number of times TLB was flushed by ASID
system.cpu.itb.stage2_mmu.stage2_tlb.flush_tlb_mva            0                       # Number of times TLB was flushed by MVA
system.cpu.itb.stage2_mmu.stage2_tlb.flush_tlb_mva_asid            0                       # Number of times TLB was flushed by MVA & ASID
system.cpu.itb.stage2_mmu.stage2_tlb.hits            0                       # DTB hits
system.cpu.itb.stage2_mmu.stage2_tlb.inst_accesses            0                       # ITB inst accesses
system.cpu.itb.stage2_mmu.stage2_tlb.inst_hits            0                       # ITB inst hits
system.cpu.itb.stage2_mmu.stage2_tlb.inst_misses            0                       # ITB inst misses
system.cpu.itb.stage2_mmu.stage2_tlb.misses            0                       # DTB misses
system.cpu.itb.stage2_mmu.stage2_tlb.perms_faults            0                       # Number of TLB faults due to permissions restrictions
system.cpu.itb.stage2_mmu.stage2_tlb.prefetch_faults            0                       # Number of TLB faults due to prefetch
system.cpu.itb.stage2_mmu.stage2_tlb.read_accesses            0                       # DTB read accesses
system.cpu.itb.stage2_mmu.stage2_tlb.read_hits            0                       # DTB read hits
system.cpu.itb.stage2_mmu.stage2_tlb.read_misses            0                       # DTB read misses
system.cpu.itb.stage2_mmu.stage2_tlb.walker.walkRequestOrigin_Requested::Data            0                       # Table walker requests started/completed, data/inst
system.cpu.itb.stage2_mmu.stage2_tlb.walker.walkRequestOrigin_Requested::Inst            0                       # Table walker requests started/completed, data/inst
system.cpu.itb.stage2_mmu.stage2_tlb.walker.walkRequestOrigin_Requested::total            0                       # Table walker requests started/completed, data/inst
system.cpu.itb.stage2_mmu.stage2_tlb.walker.walkRequestOrigin_Completed::Data            0                       # Table walker requests started/completed, data/inst
system.cpu.itb.stage2_mmu.stage2_tlb.walker.walkRequestOrigin_Completed::Inst            0                       # Table walker requests started/completed, data/inst
system.cpu.itb.stage2_mmu.stage2_tlb.walker.walkRequestOrigin_Completed::total            0                       # Table walker requests started/completed, data/inst
system.cpu.itb.stage2_mmu.stage2_tlb.walker.walkRequestOrigin::total            0                       # Table walker requests started/completed, data/inst
system.cpu.itb.stage2_mmu.stage2_tlb.walker.walks            0                       # Table walker walks requested
system.cpu.itb.stage2_mmu.stage2_tlb.write_accesses            0                       # DTB write accesses
system.cpu.itb.stage2_mmu.stage2_tlb.write_hits            0                       # DTB write hits
system.cpu.itb.stage2_mmu.stage2_tlb.write_misses            0                       # DTB write misses
system.cpu.itb.walker.walkRequestOrigin_Requested::Data            0                       # Table walker requests started/completed, data/inst
system.cpu.itb.walker.walkRequestOrigin_Requested::Inst            0                       # Table walker requests started/completed, data/inst
system.cpu.itb.walker.walkRequestOrigin_Requested::total            0                       # Table walker requests started/completed, data/inst
system.cpu.itb.walker.walkRequestOrigin_Completed::Data            0                       # Table walker requests started/completed, data/inst
system.cpu.itb.walker.walkRequestOrigin_Completed::Inst            0                       # Table walker requests started/completed, data/inst
system.cpu.itb.walker.walkRequestOrigin_Completed::total            0                       # Table walker requests started/completed, data/inst
system.cpu.itb.walker.walkRequestOrigin::total            0                       # Table walker requests started/completed, data/inst
system.cpu.itb.walker.walks                         0                       # Table walker walks requested
system.cpu.itb.write_accesses                       0                       # DTB write accesses
system.cpu.itb.write_hits                           0                       # DTB write hits
system.cpu.itb.write_misses                         0                       # DTB write misses
system.cpu.memDep0.conflictingLoads             49610                       # Number of conflicting loads.
system.cpu.memDep0.conflictingStores            36325                       # Number of conflicting stores.
system.cpu.memDep0.insertedLoads              1716929                       # Number of loads inserted to the mem dependence unit.
system.cpu.memDep0.insertedStores             1814939                       # Number of stores inserted to the mem dependence unit.
system.cpu.misc_regfile_reads                 7811919                       # number of misc regfile reads
system.cpu.misc_regfile_writes                  48481                       # number of misc regfile writes
system.cpu.numCycles                          8943215                       # number of cpu cycles simulated
system.cpu.numWorkItemsCompleted                    0                       # number of work items this cpu completed
system.cpu.numWorkItemsStarted                      0                       # number of work items this cpu started
system.cpu.rename.BlockCycles                   73852                       # Number of cycles rename is blocking
system.cpu.rename.CommittedMaps              12114552                       # Number of HB maps that are committed
system.cpu.rename.IQFullEvents                    102                       # Number of times rename has blocked due to IQ full
system.cpu.rename.IdleCycles                  3588196                       # Number of cycles rename is idle
system.cpu.rename.LQFullEvents                     36                       # Number of times rename has blocked due to LQ full
system.cpu.rename.ROBFullEvents                     5                       # Number of times rename has blocked due to ROB full
system.cpu.rename.RenameLookups              18390725                       # Number of register rename lookups that rename has made
system.cpu.rename.RenamedInsts               11398360                       # Number of instructions processed by rename
system.cpu.rename.RenamedOperands            12155511                       # Number of destination operands rename has renamed
system.cpu.rename.RunCycles                   2216331                       # Number of cycles rename is running
system.cpu.rename.SQFullEvents                 784918                       # Number of times rename has blocked due to SQ full
system.cpu.rename.SquashCycles                   1370                       # Number of cycles rename is squashing
system.cpu.rename.UnblockCycles                822157                       # Number of cycles rename is unblocking
system.cpu.rename.UndoneMaps                    40932                       # Number of HB maps that are undone due to squashing
system.cpu.rename.int_rename_lookups         12981219                       # Number of integer rename lookups
system.cpu.rename.serializeStallCycles        1681359                       # count of cycles rename stalled for serializing inst
system.cpu.rename.serializingInsts              36813                       # count of serializing insts renamed
system.cpu.rename.skidInsts                    198060                       # count of insts added to the skid buffer
system.cpu.rename.tempSerializingInsts          12172                       # count of temporary serializing insts renamed
system.cpu.rename.vec_rename_lookups           242099                       # Number of vector rename lookups
system.cpu.rob.rob_reads                     19272281                       # The number of ROB reads
system.cpu.rob.rob_writes                    22785641                       # The number of ROB writes
system.cpu.timesIdled                           71443                       # Number of times that the entire CPU went into an idle state and unscheduled itself
system.cpu.vec_regfile_reads                   241453                       # number of vector regfile reads
system.cpu.vec_regfile_writes                   99973                       # number of vector regfile writes
system.cpu.workload.numSyscalls                    21                       # Number of system calls
system.membus.snoop_filter.hit_multi_requests            0                       # Number of requests hitting in the snoop filter with multiple (>1) holders of the requested data.
system.membus.snoop_filter.hit_multi_snoops            0                       # Number of snoops hitting in the snoop filter with multiple (>1) holders of the requested data.
system.membus.snoop_filter.hit_single_requests            0                       # Number of requests hitting in the snoop filter with a single holder of the requested data.
system.membus.snoop_filter.hit_single_snoops            0                       # Number of snoops hitting in the snoop filter with a single holder of the requested data.
system.membus.snoop_filter.tot_requests         38652                       # Total number of requests made to the snoop filter.
system.membus.snoop_filter.tot_snoops               0                       # Total number of snoops made to the snoop filter.
system.tol2bus.snoop_filter.hit_multi_requests            1                       # Number of requests hitting in the snoop filter with multiple (>1) holders of the requested data.
system.tol2bus.snoop_filter.hit_multi_snoops            0                       # Number of snoops hitting in the snoop filter with multiple (>1) holders of the requested data.
system.tol2bus.snoop_filter.hit_single_requests       304800                       # Number of requests hitting in the snoop filter with a single holder of the requested data.
system.tol2bus.snoop_filter.hit_single_snoops            0                       # Number of snoops hitting in the snoop filter with a single holder of the requested data.
system.tol2bus.snoop_filter.tot_requests       610861                       # Total number of requests made to the snoop filter.
system.tol2bus.snoop_filter.tot_snoops              0                       # Total number of snoops made to the snoop filter.
system.membus.trans_dist::ReadResp               6242                       # Transaction distribution
system.membus.trans_dist::ReadExReq             32391                       # Transaction distribution
system.membus.trans_dist::ReadExResp            32391                       # Transaction distribution
system.membus.trans_dist::ReadSharedReq          6242                       # Transaction distribution
system.membus.trans_dist::InvalidateReq            19                       # Transaction distribution
system.membus.pkt_count_system.l2.mem_side::system.mem_ctrls.port        77285                       # Packet count per connected master and slave (bytes)
system.membus.pkt_count::total                  77285                       # Packet count per connected master and slave (bytes)
system.membus.pkt_size_system.l2.mem_side::system.mem_ctrls.port      2472512                       # Cumulative packet size per connected master and slave (bytes)
system.membus.pkt_size::total                 2472512                       # Cumulative packet size per connected master and slave (bytes)
system.membus.snoops                                0                       # Total snoops (count)
system.membus.snoopTraffic                          0                       # Total snoop traffic (bytes)
system.membus.snoop_fanout::samples             38652                       # Request fanout histogram
system.membus.snoop_fanout::mean                    0                       # Request fanout histogram
system.membus.snoop_fanout::stdev                   0                       # Request fanout histogram
system.membus.snoop_fanout::underflows              0      0.00%      0.00% # Request fanout histogram
system.membus.snoop_fanout::0                   38652    100.00%    100.00% # Request fanout histogram
system.membus.snoop_fanout::1                       0      0.00%    100.00% # Request fanout histogram
system.membus.snoop_fanout::overflows               0      0.00%    100.00% # Request fanout histogram
system.membus.snoop_fanout::min_value               0                       # Request fanout histogram
system.membus.snoop_fanout::max_value               0                       # Request fanout histogram
system.membus.snoop_fanout::total               38652                       # Request fanout histogram
system.membus.reqLayer0.occupancy            44654500                       # Layer occupancy (ticks)
system.membus.reqLayer0.utilization               1.0                       # Layer utilization (%)
system.membus.respLayer1.occupancy          198087000                       # Layer occupancy (ticks)
system.membus.respLayer1.utilization              4.4                       # Layer utilization (%)
system.membus.power_state.pwrStateResidencyTicks::UNDEFINED   4471607000                       # Cumulative time (in ticks) in various power states
system.tol2bus.trans_dist::ReadResp            273648                       # Transaction distribution
system.tol2bus.trans_dist::WritebackDirty        37016                       # Transaction distribution
system.tol2bus.trans_dist::WritebackClean       266470                       # Transaction distribution
system.tol2bus.trans_dist::CleanEvict            1314                       # Transaction distribution
system.tol2bus.trans_dist::ReadExReq            32394                       # Transaction distribution
system.tol2bus.trans_dist::ReadExResp           32394                       # Transaction distribution
system.tol2bus.trans_dist::ReadCleanReq        266707                       # Transaction distribution
system.tol2bus.trans_dist::ReadSharedReq         6941                       # Transaction distribution
system.tol2bus.trans_dist::InvalidateReq           19                       # Transaction distribution
system.tol2bus.trans_dist::InvalidateResp           19                       # Transaction distribution
system.tol2bus.pkt_count_system.cpu.icache.mem_side::system.l2.cpu_side       799884                       # Packet count per connected master and slave (bytes)
system.tol2bus.pkt_count_system.cpu.dcache.mem_side::system.l2.cpu_side       117038                       # Packet count per connected master and slave (bytes)
system.tol2bus.pkt_count::total                916922                       # Packet count per connected master and slave (bytes)
system.tol2bus.pkt_size_system.cpu.icache.mem_side::system.l2.cpu_side     34123328                       # Cumulative packet size per connected master and slave (bytes)
system.tol2bus.pkt_size_system.cpu.dcache.mem_side::system.l2.cpu_side      4886464                       # Cumulative packet size per connected master and slave (bytes)
system.tol2bus.pkt_size::total               39009792                       # Cumulative packet size per connected master and slave (bytes)
system.tol2bus.snoops                               0                       # Total snoops (count)
system.tol2bus.snoopTraffic                         0                       # Total snoop traffic (bytes)
system.tol2bus.snoop_fanout::samples           306061                       # Request fanout histogram
system.tol2bus.snoop_fanout::mean            0.000003                       # Request fanout histogram
system.tol2bus.snoop_fanout::stdev           0.001808                       # Request fanout histogram
system.tol2bus.snoop_fanout::underflows             0      0.00%      0.00% # Request fanout histogram
system.tol2bus.snoop_fanout::0                 306060    100.00%    100.00% # Request fanout histogram
system.tol2bus.snoop_fanout::1                      1      0.00%    100.00% # Request fanout histogram
system.tol2bus.snoop_fanout::2                      0      0.00%    100.00% # Request fanout histogram
system.tol2bus.snoop_fanout::overflows              0      0.00%    100.00% # Request fanout histogram
system.tol2bus.snoop_fanout::min_value              0                       # Request fanout histogram
system.tol2bus.snoop_fanout::max_value              1                       # Request fanout histogram
system.tol2bus.snoop_fanout::total             306061                       # Request fanout histogram
system.tol2bus.reqLayer0.occupancy          633048823                       # Layer occupancy (ticks)
system.tol2bus.reqLayer0.utilization             14.2                       # Layer utilization (%)
system.tol2bus.respLayer1.occupancy          59037948                       # Layer occupancy (ticks)
system.tol2bus.respLayer1.utilization             1.3                       # Layer utilization (%)
system.tol2bus.respLayer0.occupancy         400060500                       # Layer occupancy (ticks)
system.tol2bus.respLayer0.utilization             8.9                       # Layer utilization (%)
system.tol2bus.power_state.pwrStateResidencyTicks::UNDEFINED   4471607000                       # Cumulative time (in ticks) in various power states
system.voltage_domain.voltage                       1                       # Voltage in Volts
system.clk_domain.clock                          1000                       # Clock period in ticks
system.l2.demand_hits::.cpu.inst                97509                       # number of demand (read+write) hits
system.l2.demand_hits::.cpu.data                 1225                       # number of demand (read+write) hits
system.l2.demand_hits::.cpu.icache.prefetcher       168675                       # number of demand (read+write) hits
system.l2.demand_hits::total                   267409                       # number of demand (read+write) hits
system.l2.overall_hits::.cpu.inst               97509                       # number of overall hits
system.l2.overall_hits::.cpu.data                1225                       # number of overall hits
system.l2.overall_hits::.cpu.icache.prefetcher       168675                       # number of overall hits
system.l2.overall_hits::total                  267409                       # number of overall hits
system.l2.demand_misses::.cpu.inst                523                       # number of demand (read+write) misses
system.l2.demand_misses::.cpu.data              38110                       # number of demand (read+write) misses
system.l2.demand_misses::total                  38633                       # number of demand (read+write) misses
system.l2.overall_misses::.cpu.inst               523                       # number of overall misses
system.l2.overall_misses::.cpu.data             38110                       # number of overall misses
system.l2.overall_misses::total                 38633                       # number of overall misses
system.l2.demand_miss_latency::.cpu.inst     40844500                       # number of demand (read+write) miss cycles
system.l2.demand_miss_latency::.cpu.data   3233374000                       # number of demand (read+write) miss cycles
system.l2.demand_miss_latency::total       3274218500                       # number of demand (read+write) miss cycles
system.l2.overall_miss_latency::.cpu.inst     40844500                       # number of overall miss cycles
system.l2.overall_miss_latency::.cpu.data   3233374000                       # number of overall miss cycles
system.l2.overall_miss_latency::total      3274218500                       # number of overall miss cycles
system.l2.demand_accesses::.cpu.inst            98032                       # number of demand (read+write) accesses
system.l2.demand_accesses::.cpu.data            39335                       # number of demand (read+write) accesses
system.l2.demand_accesses::.cpu.icache.prefetcher       168675                       # number of demand (read+write) accesses
system.l2.demand_accesses::total               306042                       # number of demand (read+write) accesses
system.l2.overall_accesses::.cpu.inst           98032                       # number of overall (read+write) accesses
system.l2.overall_accesses::.cpu.data           39335                       # number of overall (read+write) accesses
system.l2.overall_accesses::.cpu.icache.prefetcher       168675                       # number of overall (read+write) accesses
system.l2.overall_accesses::total              306042                       # number of overall (read+write) accesses
system.l2.demand_miss_rate::.cpu.inst        0.005335                       # miss rate for demand accesses
system.l2.demand_miss_rate::.cpu.data        0.968857                       # miss rate for demand accesses
system.l2.demand_miss_rate::total            0.126234                       # miss rate for demand accesses
system.l2.overall_miss_rate::.cpu.inst       0.005335                       # miss rate for overall accesses
system.l2.overall_miss_rate::.cpu.data       0.968857                       # miss rate for overall accesses
system.l2.overall_miss_rate::total           0.126234                       # miss rate for overall accesses
system.l2.demand_avg_miss_latency::.cpu.inst 78096.558317                       # average overall miss latency
system.l2.demand_avg_miss_latency::.cpu.data 84843.190764                       # average overall miss latency
system.l2.demand_avg_miss_latency::total 84751.857221                       # average overall miss latency
system.l2.overall_avg_miss_latency::.cpu.inst 78096.558317                       # average overall miss latency
system.l2.overall_avg_miss_latency::.cpu.data 84843.190764                       # average overall miss latency
system.l2.overall_avg_miss_latency::total 84751.857221                       # average overall miss latency
system.l2.blocked_cycles::no_mshrs                  0                       # number of cycles access was blocked
system.l2.blocked_cycles::no_targets                0                       # number of cycles access was blocked
system.l2.blocked::no_mshrs                         0                       # number of cycles access was blocked
system.l2.blocked::no_targets                       0                       # number of cycles access was blocked
system.l2.avg_blocked_cycles::no_mshrs            nan                       # average number of cycles each access was blocked
system.l2.avg_blocked_cycles::no_targets          nan                       # average number of cycles each access was blocked
system.l2.demand_mshr_misses::.cpu.inst           523                       # number of demand (read+write) MSHR misses
system.l2.demand_mshr_misses::.cpu.data         38110                       # number of demand (read+write) MSHR misses
system.l2.demand_mshr_misses::total             38633                       # number of demand (read+write) MSHR misses
system.l2.overall_mshr_misses::.cpu.inst          523                       # number of overall MSHR misses
system.l2.overall_mshr_misses::.cpu.data        38110                       # number of overall MSHR misses
system.l2.overall_mshr_misses::total            38633                       # number of overall MSHR misses
system.l2.demand_mshr_miss_latency::.cpu.inst     35614500                       # number of demand (read+write) MSHR miss cycles
system.l2.demand_mshr_miss_latency::.cpu.data   2852274000                       # number of demand (read+write) MSHR miss cycles
system.l2.demand_mshr_miss_latency::total   2887888500                       # number of demand (read+write) MSHR miss cycles
system.l2.overall_mshr_miss_latency::.cpu.inst     35614500                       # number of overall MSHR miss cycles
system.l2.overall_mshr_miss_latency::.cpu.data   2852274000                       # number of overall MSHR miss cycles
system.l2.overall_mshr_miss_latency::total   2887888500                       # number of overall MSHR miss cycles
system.l2.demand_mshr_miss_rate::.cpu.inst     0.005335                       # mshr miss rate for demand accesses
system.l2.demand_mshr_miss_rate::.cpu.data     0.968857                       # mshr miss rate for demand accesses
system.l2.demand_mshr_miss_rate::total       0.126234                       # mshr miss rate for demand accesses
system.l2.overall_mshr_miss_rate::.cpu.inst     0.005335                       # mshr miss rate for overall accesses
system.l2.overall_mshr_miss_rate::.cpu.data     0.968857                       # mshr miss rate for overall accesses
system.l2.overall_mshr_miss_rate::total      0.126234                       # mshr miss rate for overall accesses
system.l2.demand_avg_mshr_miss_latency::.cpu.inst 68096.558317                       # average overall mshr miss latency
system.l2.demand_avg_mshr_miss_latency::.cpu.data 74843.190764                       # average overall mshr miss latency
system.l2.demand_avg_mshr_miss_latency::total 74751.857221                       # average overall mshr miss latency
system.l2.overall_avg_mshr_miss_latency::.cpu.inst 68096.558317                       # average overall mshr miss latency
system.l2.overall_avg_mshr_miss_latency::.cpu.data 74843.190764                       # average overall mshr miss latency
system.l2.overall_avg_mshr_miss_latency::total 74751.857221                       # average overall mshr miss latency
system.l2.replacements                              0                       # number of replacements
system.l2.WritebackDirty_hits::.writebacks        37016                       # number of WritebackDirty hits
system.l2.WritebackDirty_hits::total            37016                       # number of WritebackDirty hits
system.l2.WritebackDirty_accesses::.writebacks        37016                       # number of WritebackDirty accesses(hits+misses)
system.l2.WritebackDirty_accesses::total        37016                       # number of WritebackDirty accesses(hits+misses)
system.l2.WritebackClean_hits::.writebacks       266469                       # number of WritebackClean hits
system.l2.WritebackClean_hits::total           266469                       # number of WritebackClean hits
system.l2.WritebackClean_accesses::.writebacks       266469                       # number of WritebackClean accesses(hits+misses)
system.l2.WritebackClean_accesses::total       266469                       # number of WritebackClean accesses(hits+misses)
system.l2.ReadExReq_hits::.cpu.data                 3                       # number of ReadExReq hits
system.l2.ReadExReq_hits::total                     3                       # number of ReadExReq hits
system.l2.ReadExReq_misses::.cpu.data           32391                       # number of ReadExReq misses
system.l2.ReadExReq_misses::total               32391                       # number of ReadExReq misses
system.l2.ReadExReq_miss_latency::.cpu.data   2711574000                       # number of ReadExReq miss cycles
system.l2.ReadExReq_miss_latency::total    2711574000                       # number of ReadExReq miss cycles
system.l2.ReadExReq_accesses::.cpu.data         32394                       # number of ReadExReq accesses(hits+misses)
system.l2.ReadExReq_accesses::total             32394                       # number of ReadExReq accesses(hits+misses)
system.l2.ReadExReq_miss_rate::.cpu.data     0.999907                       # miss rate for ReadExReq accesses
system.l2.ReadExReq_miss_rate::total         0.999907                       # miss rate for ReadExReq accesses
system.l2.ReadExReq_avg_miss_latency::.cpu.data 83713.809391                       # average ReadExReq miss latency
system.l2.ReadExReq_avg_miss_latency::total 83713.809391                       # average ReadExReq miss latency
system.l2.ReadExReq_mshr_misses::.cpu.data        32391                       # number of ReadExReq MSHR misses
system.l2.ReadExReq_mshr_misses::total          32391                       # number of ReadExReq MSHR misses
system.l2.ReadExReq_mshr_miss_latency::.cpu.data   2387664000                       # number of ReadExReq MSHR miss cycles
system.l2.ReadExReq_mshr_miss_latency::total   2387664000                       # number of ReadExReq MSHR miss cycles
system.l2.ReadExReq_mshr_miss_rate::.cpu.data     0.999907                       # mshr miss rate for ReadExReq accesses
system.l2.ReadExReq_mshr_miss_rate::total     0.999907                       # mshr miss rate for ReadExReq accesses
system.l2.ReadExReq_avg_mshr_miss_latency::.cpu.data 73713.809391                       # average ReadExReq mshr miss latency
system.l2.ReadExReq_avg_mshr_miss_latency::total 73713.809391                       # average ReadExReq mshr miss latency
system.l2.ReadCleanReq_hits::.cpu.inst          97509                       # number of ReadCleanReq hits
system.l2.ReadCleanReq_hits::.cpu.icache.prefetcher       168675                       # number of ReadCleanReq hits
system.l2.ReadCleanReq_hits::total             266184                       # number of ReadCleanReq hits
system.l2.ReadCleanReq_misses::.cpu.inst          523                       # number of ReadCleanReq misses
system.l2.ReadCleanReq_misses::total              523                       # number of ReadCleanReq misses
system.l2.ReadCleanReq_miss_latency::.cpu.inst     40844500                       # number of ReadCleanReq miss cycles
system.l2.ReadCleanReq_miss_latency::total     40844500                       # number of ReadCleanReq miss cycles
system.l2.ReadCleanReq_accesses::.cpu.inst        98032                       # number of ReadCleanReq accesses(hits+misses)
system.l2.ReadCleanReq_accesses::.cpu.icache.prefetcher       168675                       # number of ReadCleanReq accesses(hits+misses)
system.l2.ReadCleanReq_accesses::total         266707                       # number of ReadCleanReq accesses(hits+misses)
system.l2.ReadCleanReq_miss_rate::.cpu.inst     0.005335                       # miss rate for ReadCleanReq accesses
system.l2.ReadCleanReq_miss_rate::total      0.001961                       # miss rate for ReadCleanReq accesses
[...]
system.cpu.dcache.demand_accesses::.cpu.data      3418142                       # number of demand (read+write) accesses
system.cpu.dcache.demand_accesses::total      3418142                       # number of demand (read+write) accesses
system.cpu.dcache.overall_accesses::.cpu.data      3424967                       # number of overall (read+write) accesses
system.cpu.dcache.overall_accesses::total      3424967                       # number of overall (read+write) accesses
system.cpu.dcache.demand_miss_rate::.cpu.data     0.026839                       # miss rate for demand accesses
system.cpu.dcache.demand_miss_rate::total     0.026839                       # miss rate for demand accesses
system.cpu.dcache.overall_miss_rate::.cpu.data     0.027004                       # miss rate for overall accesses
system.cpu.dcache.overall_miss_rate::total     0.027004                       # miss rate for overall accesses
system.cpu.dcache.demand_avg_miss_latency::.cpu.data 84458.692595                       # average overall miss latency
system.cpu.dcache.demand_avg_miss_latency::total 84458.692595                       # average overall miss latency
system.cpu.dcache.overall_avg_miss_latency::.cpu.data 83774.716720                       # average overall miss latency
system.cpu.dcache.overall_avg_miss_latency::total 83774.716720                       # average overall miss latency
system.cpu.dcache.blocked_cycles::no_mshrs            0                       # number of cycles access was blocked
system.cpu.dcache.blocked_cycles::no_targets            0                       # number of cycles access was blocked
system.cpu.dcache.blocked::no_mshrs                 0                       # number of cycles access was blocked
system.cpu.dcache.blocked::no_targets               0                       # number of cycles access was blocked
system.cpu.dcache.avg_blocked_cycles::no_mshrs          nan                       # average number of cycles each access was blocked
system.cpu.dcache.avg_blocked_cycles::no_targets          nan                       # average number of cycles each access was blocked
system.cpu.dcache.writebacks::.writebacks        37016                       # number of writebacks
system.cpu.dcache.writebacks::total             37016                       # number of writebacks
system.cpu.dcache.demand_mshr_hits::.cpu.data        52388                       # number of demand (read+write) MSHR hits
system.cpu.dcache.demand_mshr_hits::total        52388                       # number of demand (read+write) MSHR hits
system.cpu.dcache.overall_mshr_hits::.cpu.data        52388                       # number of overall MSHR hits
system.cpu.dcache.overall_mshr_hits::total        52388                       # number of overall MSHR hits
system.cpu.dcache.demand_mshr_misses::.cpu.data        39351                       # number of demand (read+write) MSHR misses
system.cpu.dcache.demand_mshr_misses::total        39351                       # number of demand (read+write) MSHR misses
system.cpu.dcache.overall_mshr_misses::.cpu.data        39353                       # number of overall MSHR misses
system.cpu.dcache.overall_mshr_misses::total        39353                       # number of overall MSHR misses
system.cpu.dcache.demand_mshr_miss_latency::.cpu.data   3322625000                       # number of demand (read+write) MSHR miss cycles
system.cpu.dcache.demand_mshr_miss_latency::total   3322625000                       # number of demand (read+write) MSHR miss cycles
system.cpu.dcache.overall_mshr_miss_latency::.cpu.data   3322809500                       # number of overall MSHR miss cycles
system.cpu.dcache.overall_mshr_miss_latency::total   3322809500                       # number of overall MSHR miss cycles
system.cpu.dcache.demand_mshr_miss_rate::.cpu.data     0.011512                       # mshr miss rate for demand accesses
system.cpu.dcache.demand_mshr_miss_rate::total     0.011512                       # mshr miss rate for demand accesses
system.cpu.dcache.overall_mshr_miss_rate::.cpu.data     0.011490                       # mshr miss rate for overall accesses
system.cpu.dcache.overall_mshr_miss_rate::total     0.011490                       # mshr miss rate for overall accesses
system.cpu.dcache.demand_avg_mshr_miss_latency::.cpu.data 84435.592488                       # average overall mshr miss latency
system.cpu.dcache.demand_avg_mshr_miss_latency::total 84435.592488                       # average overall mshr miss latency
system.cpu.dcache.overall_avg_mshr_miss_latency::.cpu.data 84435.989632                       # average overall mshr miss latency
system.cpu.dcache.overall_avg_mshr_miss_latency::total 84435.989632                       # average overall mshr miss latency
system.cpu.dcache.replacements                  38330                       # number of replacements
system.cpu.dcache.ReadReq_hits::.cpu.data      1604606                       # number of ReadReq hits
system.cpu.dcache.ReadReq_hits::total         1604606                       # number of ReadReq hits
system.cpu.dcache.ReadReq_misses::.cpu.data        28380                       # number of ReadReq misses
system.cpu.dcache.ReadReq_misses::total         28380                       # number of ReadReq misses
system.cpu.dcache.ReadReq_miss_latency::.cpu.data   2317151000                       # number of ReadReq miss cycles
system.cpu.dcache.ReadReq_miss_latency::total   2317151000                       # number of ReadReq miss cycles
system.cpu.dcache.ReadReq_accesses::.cpu.data      1632986                       # number of ReadReq accesses(hits+misses)
system.cpu.dcache.ReadReq_accesses::total      1632986                       # number of ReadReq accesses(hits+misses)
system.cpu.dcache.ReadReq_miss_rate::.cpu.data     0.017379                       # miss rate for ReadReq accesses
system.cpu.dcache.ReadReq_miss_rate::total     0.017379                       # miss rate for ReadReq accesses
system.cpu.dcache.ReadReq_avg_miss_latency::.cpu.data 81647.322058                       # average ReadReq miss latency
system.cpu.dcache.ReadReq_avg_miss_latency::total 81647.322058                       # average ReadReq miss latency
system.cpu.dcache.ReadReq_mshr_hits::.cpu.data        17782                       # number of ReadReq MSHR hits
system.cpu.dcache.ReadReq_mshr_hits::total        17782                       # number of ReadReq MSHR hits
system.cpu.dcache.ReadReq_mshr_misses::.cpu.data        10598                       # number of ReadReq MSHR misses
system.cpu.dcache.ReadReq_mshr_misses::total        10598                       # number of ReadReq MSHR misses
system.cpu.dcache.ReadReq_mshr_miss_latency::.cpu.data    913414500                       # number of ReadReq MSHR miss cycles
system.cpu.dcache.ReadReq_mshr_miss_latency::total    913414500                       # number of ReadReq MSHR miss cycles
system.cpu.dcache.ReadReq_mshr_miss_rate::.cpu.data     0.006490                       # mshr miss rate for ReadReq accesses
system.cpu.dcache.ReadReq_mshr_miss_rate::total     0.006490                       # mshr miss rate for ReadReq accesses
system.cpu.dcache.ReadReq_avg_mshr_miss_latency::.cpu.data 86187.441027                       # average ReadReq mshr miss latency
system.cpu.dcache.ReadReq_avg_mshr_miss_latency::total 86187.441027                       # average ReadReq mshr miss latency
system.cpu.dcache.WriteReq_hits::.cpu.data      1721797                       # number of WriteReq hits
system.cpu.dcache.WriteReq_hits::total        1721797                       # number of WriteReq hits
system.cpu.dcache.WriteReq_misses::.cpu.data        63346                       # number of WriteReq misses
system.cpu.dcache.WriteReq_misses::total        63346                       # number of WriteReq misses
system.cpu.dcache.WriteReq_miss_latency::.cpu.data   5430590500                       # number of WriteReq miss cycles
system.cpu.dcache.WriteReq_miss_latency::total   5430590500                       # number of WriteReq miss cycles
system.cpu.dcache.WriteReq_accesses::.cpu.data      1785143                       # number of WriteReq accesses(hits+misses)
system.cpu.dcache.WriteReq_accesses::total      1785143                       # number of WriteReq accesses(hits+misses)
system.cpu.dcache.WriteReq_miss_rate::.cpu.data     0.035485                       # miss rate for WriteReq accesses
system.cpu.dcache.WriteReq_miss_rate::total     0.035485                       # miss rate for WriteReq accesses
system.cpu.dcache.WriteReq_avg_miss_latency::.cpu.data 85729.019985                       # average WriteReq miss latency
system.cpu.dcache.WriteReq_avg_miss_latency::total 85729.019985                       # average WriteReq miss latency
system.cpu.dcache.WriteReq_mshr_hits::.cpu.data        34606                       # number of WriteReq MSHR hits
system.cpu.dcache.WriteReq_mshr_hits::total        34606                       # number of WriteReq MSHR hits
system.cpu.dcache.WriteReq_mshr_misses::.cpu.data        28740                       # number of WriteReq MSHR misses
system.cpu.dcache.WriteReq_mshr_misses::total        28740                       # number of WriteReq MSHR misses
system.cpu.dcache.WriteReq_mshr_miss_latency::.cpu.data   2408809000                       # number of WriteReq MSHR miss cycles
system.cpu.dcache.WriteReq_mshr_miss_latency::total   2408809000                       # number of WriteReq MSHR miss cycles
system.cpu.dcache.WriteReq_mshr_miss_rate::.cpu.data     0.016100                       # mshr miss rate for WriteReq accesses
system.cpu.dcache.WriteReq_mshr_miss_rate::total     0.016100                       # mshr miss rate for WriteReq accesses
system.cpu.dcache.WriteReq_avg_mshr_miss_latency::.cpu.data 83813.813500                       # average WriteReq mshr miss latency
system.cpu.dcache.WriteReq_avg_mshr_miss_latency::total 83813.813500                       # average WriteReq mshr miss latency
system.cpu.dcache.SoftPFReq_hits::.cpu.data         6076                       # number of SoftPFReq hits
system.cpu.dcache.SoftPFReq_hits::total          6076                       # number of SoftPFReq hits
system.cpu.dcache.SoftPFReq_misses::.cpu.data          749                       # number of SoftPFReq misses
system.cpu.dcache.SoftPFReq_misses::total          749                       # number of SoftPFReq misses
system.cpu.dcache.SoftPFReq_accesses::.cpu.data         6825                       # number of SoftPFReq accesses(hits+misses)
system.cpu.dcache.SoftPFReq_accesses::total         6825                       # number of SoftPFReq accesses(hits+misses)
system.cpu.dcache.SoftPFReq_miss_rate::.cpu.data     0.109744                       # miss rate for SoftPFReq accesses
system.cpu.dcache.SoftPFReq_miss_rate::total     0.109744                       # miss rate for SoftPFReq accesses
system.cpu.dcache.SoftPFReq_mshr_misses::.cpu.data            2                       # number of SoftPFReq MSHR misses
system.cpu.dcache.SoftPFReq_mshr_misses::total            2                       # number of SoftPFReq MSHR misses
system.cpu.dcache.SoftPFReq_mshr_miss_latency::.cpu.data       184500                       # number of SoftPFReq MSHR miss cycles
system.cpu.dcache.SoftPFReq_mshr_miss_latency::total       184500                       # number of SoftPFReq MSHR miss cycles
system.cpu.dcache.SoftPFReq_mshr_miss_rate::.cpu.data     0.000293                       # mshr miss rate for SoftPFReq accesses
system.cpu.dcache.SoftPFReq_mshr_miss_rate::total     0.000293                       # mshr miss rate for SoftPFReq accesses
system.cpu.dcache.SoftPFReq_avg_mshr_miss_latency::.cpu.data        92250                       # average SoftPFReq mshr miss latency
system.cpu.dcache.SoftPFReq_avg_mshr_miss_latency::total        92250                       # average SoftPFReq mshr miss latency
system.cpu.dcache.WriteLineReq_misses::.cpu.data           13                       # number of WriteLineReq misses
system.cpu.dcache.WriteLineReq_misses::total           13                       # number of WriteLineReq misses
system.cpu.dcache.WriteLineReq_miss_latency::.cpu.data       414500                       # number of WriteLineReq miss cycles
system.cpu.dcache.WriteLineReq_miss_latency::total       414500                       # number of WriteLineReq miss cycles
system.cpu.dcache.WriteLineReq_accesses::.cpu.data           13                       # number of WriteLineReq accesses(hits+misses)
system.cpu.dcache.WriteLineReq_accesses::total           13                       # number of WriteLineReq accesses(hits+misses)
system.cpu.dcache.WriteLineReq_miss_rate::.cpu.data            1                       # miss rate for WriteLineReq accesses
system.cpu.dcache.WriteLineReq_miss_rate::total            1                       # miss rate for WriteLineReq accesses
system.cpu.dcache.WriteLineReq_avg_miss_latency::.cpu.data 31884.615385                       # average WriteLineReq miss latency
system.cpu.dcache.WriteLineReq_avg_miss_latency::total 31884.615385                       # average WriteLineReq miss latency
system.cpu.dcache.WriteLineReq_mshr_misses::.cpu.data           13                       # number of WriteLineReq MSHR misses
system.cpu.dcache.WriteLineReq_mshr_misses::total           13                       # number of WriteLineReq MSHR misses
system.cpu.dcache.WriteLineReq_mshr_miss_latency::.cpu.data       401500                       # number of WriteLineReq MSHR miss cycles
system.cpu.dcache.WriteLineReq_mshr_miss_latency::total       401500                       # number of WriteLineReq MSHR miss cycles
system.cpu.dcache.WriteLineReq_mshr_miss_rate::.cpu.data            1                       # mshr miss rate for WriteLineReq accesses
system.cpu.dcache.WriteLineReq_mshr_miss_rate::total            1                       # mshr miss rate for WriteLineReq accesses
system.cpu.dcache.WriteLineReq_avg_mshr_miss_latency::.cpu.data 30884.615385                       # average WriteLineReq mshr miss latency
system.cpu.dcache.WriteLineReq_avg_mshr_miss_latency::total 30884.615385                       # average WriteLineReq mshr miss latency
system.cpu.dcache.LoadLockedReq_hits::.cpu.data        12135                       # number of LoadLockedReq hits
system.cpu.dcache.LoadLockedReq_hits::total        12135                       # number of LoadLockedReq hits
system.cpu.dcache.LoadLockedReq_misses::.cpu.data            2                       # number of LoadLockedReq misses
system.cpu.dcache.LoadLockedReq_misses::total            2                       # number of LoadLockedReq misses
system.cpu.dcache.LoadLockedReq_miss_latency::.cpu.data       172500                       # number of LoadLockedReq miss cycles
system.cpu.dcache.LoadLockedReq_miss_latency::total       172500                       # number of LoadLockedReq miss cycles
system.cpu.dcache.LoadLockedReq_accesses::.cpu.data        12137                       # number of LoadLockedReq accesses(hits+misses)
system.cpu.dcache.LoadLockedReq_accesses::total        12137                       # number of LoadLockedReq accesses(hits+misses)
system.cpu.dcache.LoadLockedReq_miss_rate::.cpu.data     0.000165                       # miss rate for LoadLockedReq accesses
system.cpu.dcache.LoadLockedReq_miss_rate::total     0.000165                       # miss rate for LoadLockedReq accesses
system.cpu.dcache.LoadLockedReq_avg_miss_latency::.cpu.data        86250                       # average LoadLockedReq miss latency
system.cpu.dcache.LoadLockedReq_avg_miss_latency::total        86250                       # average LoadLockedReq miss latency
system.cpu.dcache.LoadLockedReq_mshr_hits::.cpu.data            1                       # number of LoadLockedReq MSHR hits
system.cpu.dcache.LoadLockedReq_mshr_hits::total            1                       # number of LoadLockedReq MSHR hits
system.cpu.dcache.LoadLockedReq_mshr_misses::.cpu.data            1                       # number of LoadLockedReq MSHR misses
system.cpu.dcache.LoadLockedReq_mshr_misses::total            1                       # number of LoadLockedReq MSHR misses
system.cpu.dcache.LoadLockedReq_mshr_miss_latency::.cpu.data        99000                       # number of LoadLockedReq MSHR miss cycles
system.cpu.dcache.LoadLockedReq_mshr_miss_latency::total        99000                       # number of LoadLockedReq MSHR miss cycles
system.cpu.dcache.LoadLockedReq_mshr_miss_rate::.cpu.data     0.000082                       # mshr miss rate for LoadLockedReq accesses
system.cpu.dcache.LoadLockedReq_mshr_miss_rate::total     0.000082                       # mshr miss rate for LoadLockedReq accesses
system.cpu.dcache.LoadLockedReq_avg_mshr_miss_latency::.cpu.data        99000                       # average LoadLockedReq mshr miss latency
system.cpu.dcache.LoadLockedReq_avg_mshr_miss_latency::total        99000                       # average LoadLockedReq mshr miss latency
system.cpu.dcache.StoreCondReq_hits::.cpu.data        12120                       # number of StoreCondReq hits
system.cpu.dcache.StoreCondReq_hits::total        12120                       # number of StoreCondReq hits
system.cpu.dcache.StoreCondReq_accesses::.cpu.data        12120                       # number of StoreCondReq accesses(hits+misses)
system.cpu.dcache.StoreCondReq_accesses::total        12120                       # number of StoreCondReq accesses(hits+misses)
system.cpu.dcache.power_state.pwrStateResidencyTicks::UNDEFINED   4471607000                       # Cumulative time (in ticks) in various power states
system.cpu.dcache.tags.tagsinuse          1007.410038                       # Cycle average of tags in use
system.cpu.dcache.tags.total_refs             3396088                       # Total number of references to valid blocks.
system.cpu.dcache.tags.sampled_refs             39354                       # Sample count of references to valid blocks.
system.cpu.dcache.tags.avg_refs             86.295878                       # Average number of references to valid blocks.
system.cpu.dcache.tags.warmup_cycle            176500                       # Cycle when the warmup percentage was hit.
system.cpu.dcache.tags.occ_blocks::.cpu.data  1007.410038                       # Average occupied blocks per requestor
system.cpu.dcache.tags.occ_percent::.cpu.data     0.983799                       # Average percentage of cache occupancy
system.cpu.dcache.tags.occ_percent::total     0.983799                       # Average percentage of cache occupancy
system.cpu.dcache.tags.occ_task_id_blocks::1024         1024                       # Occupied blocks per task id
system.cpu.dcache.tags.age_task_id_blocks_1024::0           83                       # Occupied blocks per task id
system.cpu.dcache.tags.age_task_id_blocks_1024::1          746                       # Occupied blocks per task id
system.cpu.dcache.tags.age_task_id_blocks_1024::2          154                       # Occupied blocks per task id
system.cpu.dcache.tags.age_task_id_blocks_1024::3           41                       # Occupied blocks per task id
system.cpu.dcache.tags.occ_task_id_percent::1024            1                       # Percentage of cache occupancy per task id
system.cpu.dcache.tags.tag_accesses           6937802                       # Number of tag accesses
system.cpu.dcache.tags.data_accesses          6937802                       # Number of data accesses
system.cpu.dcache.tags.power_state.pwrStateResidencyTicks::UNDEFINED   4471607000                       # Cumulative time (in ticks) in various power states
system.cpu.power_state.pwrStateResidencyTicks::ON   4471607000                       # Cumulative time (in ticks) in various power states

---------- End Simulation Statistics   ----------
