
---------- Begin Simulation Statistics ----------
final_tick                                26868235500                       # Number of ticks from beginning of simulation (restored from checkpoints and never reset)
host_inst_rate                                  89630                       # Simulator instruction rate (inst/s)
host_mem_usage                                 867792                       # Number of bytes of host memory used
host_op_rate                                    91618                       # Simulator op (including micro ops) rate (op/s)
host_seconds                                   111.57                       # Real time elapsed on the host
host_tick_rate                              240819758                       # Simulator tick rate (ticks/s)
sim_freq                                 1000000000000                       # Frequency of simulated ticks
sim_insts                                    10000000                       # Number of instructions simulated
sim_ops                                      10221810                       # Number of ops (including micro ops) simulated
sim_seconds                                  0.026868                       # Number of seconds simulated
sim_ticks                                 26868235500                       # Number of ticks simulated
system.cpu.branchPred.BTBCorrect                    0                       # Number of correct BTB predictions (this stat may not work properly.
system.cpu.branchPred.BTBHitPct             99.738744                       # BTB Hit Percentage
system.cpu.branchPred.BTBHits                  839885                       # Number of BTB hits
system.cpu.branchPred.BTBLookups               842085                       # Number of BTB lookups
system.cpu.branchPred.RASInCorrect                  4                       # Number of incorrect RAS predictions.
system.cpu.branchPred.condIncorrect              2750                       # Number of conditional branches incorrect
system.cpu.branchPred.condPredicted           1050040                       # Number of conditional branches predicted
system.cpu.branchPred.indirectHits                623                       # Number of indirect target hits.
system.cpu.branchPred.indirectLookups            1667                       # Number of indirect predictor lookups.
system.cpu.branchPred.indirectMisses             1044                       # Number of indirect misses.
system.cpu.branchPred.lookups                 1058754                       # Number of BP lookups
system.cpu.branchPred.usedRAS                    2930                       # Number of times the RAS was used to get a target.
system.cpu.branchPredindirectMispredicted          212                       # Number of mispredicted indirect branches.
system.cpu.cc_regfile_reads                   2957137                       # number of cc regfile reads
system.cpu.cc_regfile_writes                  2956854                       # number of cc regfile writes
system.cpu.commit.amos                              0                       # Number of atomic instructions committed
system.cpu.commit.branchMispredicts              2224                       # The number of times a branch was mispredicted
system.cpu.commit.branches                     934981                       # Number of branches committed
system.cpu.commit.bw_lim_events                439136                       # number cycles where commit BW limit reached
system.cpu.commit.commitNonSpecStalls             162                       # The number of times commit has been forced to stall to communicate backwards
system.cpu.commit.commitSquashedInsts          623513                       # The number of squashed insts skipped by commit
system.cpu.commit.committedInsts             10000217                       # Number of instructions committed
system.cpu.commit.committedOps               10222027                       # Number of ops (including micro ops) committed
system.cpu.commit.committed_per_cycle::samples     53579309                       # Number of insts commited each cycle
system.cpu.commit.committed_per_cycle::mean     0.190783                       # Number of insts commited each cycle
system.cpu.commit.committed_per_cycle::stdev     0.984706                       # Number of insts commited each cycle
system.cpu.commit.committed_per_cycle::underflows            0      0.00%      0.00% # Number of insts commited each cycle
system.cpu.commit.committed_per_cycle::0     50520486     94.29%     94.29% # Number of insts commited each cycle
system.cpu.commit.committed_per_cycle::1      1167544      2.18%     96.47% # Number of insts commited each cycle
system.cpu.commit.committed_per_cycle::2       339077      0.63%     97.10% # Number of insts commited each cycle
system.cpu.commit.committed_per_cycle::3       397534      0.74%     97.84% # Number of insts commited each cycle
system.cpu.commit.committed_per_cycle::4       268782      0.50%     98.35% # Number of insts commited each cycle
system.cpu.commit.committed_per_cycle::5       209091      0.39%     98.74% # Number of insts commited each cycle
system.cpu.commit.committed_per_cycle::6       113557      0.21%     98.95% # Number of insts commited each cycle
system.cpu.commit.committed_per_cycle::7       124102      0.23%     99.18% # Number of insts commited each cycle
system.cpu.commit.committed_per_cycle::8       439136      0.82%    100.00% # Number of insts commited each cycle
system.cpu.commit.committed_per_cycle::overflows            0      0.00%    100.00% # Number of insts commited each cycle
system.cpu.commit.committed_per_cycle::min_value            0                       # Number of insts commited each cycle
system.cpu.commit.committed_per_cycle::max_value            8                       # Number of insts commited each cycle
system.cpu.commit.committed_per_cycle::total     53579309                       # Number of insts commited each cycle
system.cpu.commit.fp_insts                          0                       # Number of committed floating point instructions.
system.cpu.commit.function_calls                 1944                       # Number of function calls committed.
system.cpu.commit.int_insts                   9265875                       # Number of committed integer instructions.
system.cpu.commit.loads                         16474                       # Number of loads committed
system.cpu.commit.membars                         100                       # Number of memory barriers committed
system.cpu.commit.op_class_0::No_OpClass            4      0.00%      0.00% # Class of committed instruction
system.cpu.commit.op_class_0::IntAlu          3677170     35.97%     35.97% # Class of committed instruction
system.cpu.commit.op_class_0::IntMult             174      0.00%     35.97% # Class of committed instruction
system.cpu.commit.op_class_0::IntDiv               22      0.00%     35.97% # Class of committed instruction
system.cpu.commit.op_class_0::FloatAdd              4      0.00%     35.97% # Class of committed instruction
system.cpu.commit.op_class_0::FloatCmp              0      0.00%     35.97% # Class of committed instruction
system.cpu.commit.op_class_0::FloatCvt          30072      0.29%     36.27% # Class of committed instruction
system.cpu.commit.op_class_0::FloatMult         30069      0.29%     36.56% # Class of committed instruction
system.cpu.commit.op_class_0::FloatMultAcc            0      0.00%     36.56% # Class of committed instruction
system.cpu.commit.op_class_0::FloatDiv              3      0.00%     36.56% # Class of committed instruction
system.cpu.commit.op_class_0::FloatMisc            15      0.00%     36.56% # Class of committed instruction
system.cpu.commit.op_class_0::FloatSqrt             0      0.00%     36.56% # Class of committed instruction
system.cpu.commit.op_class_0::SimdAdd              19      0.00%     36.56% # Class of committed instruction
system.cpu.commit.op_class_0::SimdAddAcc            0      0.00%     36.56% # Class of committed instruction
system.cpu.commit.op_class_0::SimdAlu              12      0.00%     36.56% # Class of committed instruction
system.cpu.commit.op_class_0::SimdCmp              16      0.00%     36.56% # Class of committed instruction
system.cpu.commit.op_class_0::SimdCvt               0      0.00%     36.56% # Class of committed instruction
system.cpu.commit.op_class_0::SimdMisc             52      0.00%     36.56% # Class of committed instruction
system.cpu.commit.op_class_0::SimdMult              0      0.00%     36.56% # Class of committed instruction
system.cpu.commit.op_class_0::SimdMultAcc            0      0.00%     36.56% # Class of committed instruction
system.cpu.commit.op_class_0::SimdShift             0      0.00%     36.56% # Class of committed instruction
system.cpu.commit.op_class_0::SimdShiftAcc            0      0.00%     36.56% # Class of committed instruction
system.cpu.commit.op_class_0::SimdDiv               0      0.00%     36.56% # Class of committed instruction
system.cpu.commit.op_class_0::SimdSqrt              0      0.00%     36.56% # Class of committed instruction
system.cpu.commit.op_class_0::SimdFloatAdd            0      0.00%     36.56% # Class of committed instruction
system.cpu.commit.op_class_0::SimdFloatAlu            0      0.00%     36.56% # Class of committed instruction
system.cpu.commit.op_class_0::SimdFloatCmp            0      0.00%     36.56% # Class of committed instruction
system.cpu.commit.op_class_0::SimdFloatCvt            0      0.00%     36.56% # Class of committed instruction
system.cpu.commit.op_class_0::SimdFloatDiv            0      0.00%     36.56% # Class of committed instruction
system.cpu.commit.op_class_0::SimdFloatMisc            0      0.00%     36.56% # Class of committed instruction
system.cpu.commit.op_class_0::SimdFloatMult            0      0.00%     36.56% # Class of committed instruction
system.cpu.commit.op_class_0::SimdFloatMultAcc            0      0.00%     36.56% # Class of committed instruction
system.cpu.commit.op_class_0::SimdFloatSqrt            0      0.00%     36.56% # Class of committed instruction
system.cpu.commit.op_class_0::SimdReduceAdd            0      0.00%     36.56% # Class of committed instruction
system.cpu.commit.op_class_0::SimdReduceAlu            0      0.00%     36.56% # Class of committed instruction
system.cpu.commit.op_class_0::SimdReduceCmp            0      0.00%     36.56% # Class of committed instruction
system.cpu.commit.op_class_0::SimdFloatReduceAdd            0      0.00%     36.56% # Class of committed instruction
system.cpu.commit.op_class_0::SimdFloatReduceCmp            0      0.00%     36.56% # Class of committed instruction
system.cpu.commit.op_class_0::SimdAes               0      0.00%     36.56% # Class of committed instruction
system.cpu.commit.op_class_0::SimdAesMix            0      0.00%     36.56% # Class of committed instruction
system.cpu.commit.op_class_0::SimdSha1Hash            0      0.00%     36.56% # Class of committed instruction
system.cpu.commit.op_class_0::SimdSha1Hash2            0      0.00%     36.56% # Class of committed instruction
system.cpu.commit.op_class_0::SimdSha256Hash            0      0.00%     36.56% # Class of committed instruction
system.cpu.commit.op_class_0::SimdSha256Hash2            0      0.00%     36.56% # Class of committed instruction
system.cpu.commit.op_class_0::SimdShaSigma2            0      0.00%     36.56% # Class of committed instruction
system.cpu.commit.op_class_0::SimdShaSigma3            0      0.00%     36.56% # Class of committed instruction
system.cpu.commit.op_class_0::SimdPredAlu            0      0.00%     36.56% # Class of committed instruction
system.cpu.commit.op_class_0::MemRead           16474      0.16%     36.73% # Class of committed instruction
system.cpu.commit.op_class_0::MemWrite        6467921     63.27%    100.00% # Class of committed instruction
system.cpu.commit.op_class_0::FloatMemRead            0      0.00%    100.00% # Class of committed instruction
system.cpu.commit.op_class_0::FloatMemWrite            0      0.00%    100.00% # Class of committed instruction
system.cpu.commit.op_class_0::IprAccess             0      0.00%    100.00% # Class of committed instruction
system.cpu.commit.op_class_0::InstPrefetch            0      0.00%    100.00% # Class of committed instruction
system.cpu.commit.op_class_0::total          10222027                       # Class of committed instruction
system.cpu.commit.refs                        6484395                       # Number of memory references committed
system.cpu.commit.swp_count                         0                       # Number of s/w prefetches committed
system.cpu.commit.vec_insts                    298209                       # Number of committed Vector instructions.
system.cpu.committedInsts                    10000000                       # Number of Instructions Simulated
system.cpu.committedOps                      10221810                       # Number of Ops (including micro ops) Simulated
system.cpu.cpi                               5.373647                       # CPI: Cycles Per Instruction
system.cpu.cpi_total                         5.373647                       # CPI: Total CPI of All Threads
system.cpu.decode.BlockedCycles              51647468                       # Number of cycles decode is blocked
system.cpu.decode.BranchMispred                   556                       # Number of times decode detected a branch misprediction
system.cpu.decode.BranchResolved               805896                       # Number of times decode resolved a branch
system.cpu.decode.DecodedInsts               11016128                       # Number of instructions handled by decode
system.cpu.decode.IdleCycles                   455168                       # Number of cycles decode is idle
system.cpu.decode.RunCycles                   1130936                       # Number of cycles decode is running
system.cpu.decode.SquashCycles                  14666                       # Number of cycles decode is squashing
system.cpu.decode.SquashedInsts                  1905                       # Number of squashed instructions handled by decode
system.cpu.decode.UnblockCycles                415562                       # Number of cycles decode is unblocking
system.cpu.dtb.accesses                             0                       # DTB accesses
system.cpu.dtb.align_faults                         0                       # Number of TLB faults due to alignment restrictions
system.cpu.dtb.domain_faults                        0                       # Number of TLB faults due to domain restrictions
system.cpu.dtb.flush_entries                        0                       # Number of entries that have been flushed from TLB
system.cpu.dtb.flush_tlb                            0                       # Number of times complete TLB was flushed
system.cpu.dtb.flush_tlb_asid                       0                       # Number of times TLB was flushed by ASID
system.cpu.dtb.flush_tlb_mva                        0                       # Number of times TLB was flushed by MVA
system.cpu.dtb.flush_tlb_mva_asid                   0                       # Number of times TLB was flushed by MVA & ASID
system.cpu.dtb.hits                                 0                       # DTB hits
system.cpu.dtb.inst_accesses                        0                       # ITB inst accesses
system.cpu.dtb.inst_hits                            0                       # ITB inst hits
system.cpu.dtb.inst_misses                          0                       # ITB inst misses
system.cpu.dtb.misses                               0                       # DTB misses
system.cpu.dtb.perms_faults                         0                       # Number of TLB faults due to permissions restrictions
system.cpu.dtb.prefetch_faults                      0                       # Number of TLB faults due to prefetch
system.cpu.dtb.read_accesses                        0                       # DTB read accesses
system.cpu.dtb.read_hits                            0                       # DTB read hits
system.cpu.dtb.read_misses                          0                       # DTB read misses
system.cpu.dtb.stage2_mmu.stage2_tlb.accesses            0                       # DTB accesses
system.cpu.dtb.stage2_mmu.stage2_tlb.align_faults            0                       # Number of TLB faults due to alignment restrictions
system.cpu.dtb.stage2_mmu.stage2_tlb.domain_faults            0                       # Number of TLB faults due to domain restrictions
system.cpu.dtb.stage2_mmu.stage2_tlb.flush_entries            0                       # Number of entries that have been flushed from TLB
system.cpu.dtb.stage2_mmu.stage2_tlb.flush_tlb            0                       # Number of times complete TLB was flushed
system.cpu.dtb.stage2_mmu.stage2_tlb.flush_tlb_asid            0                       # Number of times TLB was flushed by ASID
system.cpu.dtb.stage2_mmu.stage2_tlb.flush_tlb_mva            0                       # Number of times TLB was flushed by MVA
system.cpu.dtb.stage2_mmu.stage2_tlb.flush_tlb_mva_asid            0                       # Number of times TLB was flushed by MVA & ASID
system.cpu.dtb.stage2_mmu.stage2_tlb.hits            0                       # DTB hits
system.cpu.dtb.stage2_mmu.stage2_tlb.inst_accesses            0                       # ITB inst accesses
system.cpu.dtb.stage2_mmu.stage2_tlb.inst_hits            0                       # ITB inst hits
system.cpu.dtb.stage2_mmu.stage2_tlb.inst_misses            0                       # ITB inst misses
system.cpu.dtb.stage2_mmu.stage2_tlb.misses            0                       # DTB misses
system.cpu.dtb.stage2_mmu.stage2_tlb.perms_faults            0                       # Number of TLB faults due to permissions restrictions
system.cpu.dtb.stage2_mmu.stage2_tlb.prefetch_faults            0                       # Number of TLB faults due to prefetch
system.cpu.dtb.stage2_mmu.stage2_tlb.read_accesses            0                       # DTB read accesses
system.cpu.dtb.stage2_mmu.stage2_tlb.read_hits            0                       # DTB read hits
system.cpu.dtb.stage2_mmu.stage2_tlb.read_misses            0                       # DTB read misses
system.cpu.dtb.stage2_mmu.stage2_tlb.walker.walkRequestOrigin_Requested::Data            0                       # Table walker requests started/completed, data/inst
system.cpu.dtb.stage2_mmu.stage2_tlb.walker.walkRequestOrigin_Requested::Inst            0                       # Table walker requests started/completed, data/inst
system.cpu.dtb.stage2_mmu.stage2_tlb.walker.walkRequestOrigin_Requested::total            0                       # Table walker requests started/completed, data/inst
system.cpu.dtb.stage2_mmu.stage2_tlb.walker.walkRequestOrigin_Completed::Data            0                       # Table walker requests started/completed, data/inst
system.cpu.dtb.stage2_mmu.stage2_tlb.walker.walkRequestOrigin_Completed::Inst            0                       # Table walker requests started/completed, data/inst
system.cpu.dtb.stage2_mmu.stage2_tlb.walker.walkRequestOrigin_Completed::total            0                       # Table walker requests started/completed, data/inst
system.cpu.dtb.stage2_mmu.stage2_tlb.walker.walkRequestOrigin::total            0                       # Table walker requests started/completed, data/inst
system.cpu.dtb.stage2_mmu.stage2_tlb.walker.walks            0                       # Table walker walks requested
system.cpu.dtb.stage2_mmu.stage2_tlb.write_accesses            0                       # DTB write accesses
system.cpu.dtb.stage2_mmu.stage2_tlb.write_hits            0                       # DTB write hits
system.cpu.dtb.stage2_mmu.stage2_tlb.write_misses            0                       # DTB write misses
system.cpu.dtb.walker.walkRequestOrigin_Requested::Data            0                       # Table walker requests started/completed, data/inst
system.cpu.dtb.walker.walkRequestOrigin_Requested::Inst            0                       # Table walker requests started/completed, data/inst
system.cpu.dtb.walker.walkRequestOrigin_Requested::total            0                       # Table walker requests started/completed, data/inst
system.cpu.dtb.walker.walkRequestOrigin_Completed::Data            0                       # Table walker requests started/completed, data/inst
system.cpu.dtb.walker.walkRequestOrigin_Completed::Inst            0                       # Table walker requests started/completed, data/inst
system.cpu.dtb.walker.walkRequestOrigin_Completed::total            0                       # Table walker requests started/completed, data/inst
system.cpu.dtb.walker.walkRequestOrigin::total            0                       # Table walker requests started/completed, data/inst
system.cpu.dtb.walker.walks                         0                       # Table walker walks requested
system.cpu.dtb.write_accesses                       0                       # DTB write accesses
system.cpu.dtb.write_hits                           0                       # DTB write hits
system.cpu.dtb.write_misses                         0                       # DTB write misses
system.cpu.fetch.Branches                     1058754                       # Number of branches that fetch encountered
system.cpu.fetch.CacheLines                   1721513                       # Number of cache lines fetched
system.cpu.fetch.Cycles                      51879087                       # Number of cycles fetch has run and was not squashing or blocked
system.cpu.fetch.IcacheSquashes                  2474                       # Number of outstanding Icache misses that were squashed
system.cpu.fetch.IcacheWaitRetryStallCycles           52                       # Number of stall cycles due to full MSHR
system.cpu.fetch.Insts                       11278063                       # Number of instructions fetch has processed
system.cpu.fetch.MiscStallCycles                   21                       # Number of cycles fetch has spent waiting on interrupts, or bad addresses, or out of MSHRs
system.cpu.fetch.PendingTrapStallCycles            96                       # Number of stall cycles due to pending traps
system.cpu.fetch.SquashCycles                   30414                       # Number of cycles fetch has spent squashing
system.cpu.fetch.branchRate                  0.019703                       # Number of branch fetches per cycle
system.cpu.fetch.icacheStallCycles            1769337                       # Number of cycles fetch is stalled on an Icache miss
system.cpu.fetch.predictedBranches             843438                       # Number of branches that fetch has predicted taken
system.cpu.fetch.rate                        0.209877                       # Number of inst fetches per cycle
system.cpu.fetch.rateDist::samples           53663800                       # Number of instructions fetched each cycle (Total)
system.cpu.fetch.rateDist::mean              0.214909                       # Number of instructions fetched each cycle (Total)
system.cpu.fetch.rateDist::stdev             1.175765                       # Number of instructions fetched each cycle (Total)
system.cpu.fetch.rateDist::underflows               0      0.00%      0.00% # Number of instructions fetched each cycle (Total)
system.cpu.fetch.rateDist::0                 51576988     96.11%     96.11% # Number of instructions fetched each cycle (Total)
system.cpu.fetch.rateDist::1                    86802      0.16%     96.27% # Number of instructions fetched each cycle (Total)
system.cpu.fetch.rateDist::2                    68818      0.13%     96.40% # Number of instructions fetched each cycle (Total)
system.cpu.fetch.rateDist::3                   668449      1.25%     97.65% # Number of instructions fetched each cycle (Total)
system.cpu.fetch.rateDist::4                    27635      0.05%     97.70% # Number of instructions fetched each cycle (Total)
system.cpu.fetch.rateDist::5                   165761      0.31%     98.01% # Number of instructions fetched each cycle (Total)
system.cpu.fetch.rateDist::6                    64104      0.12%     98.13% # Number of instructions fetched each cycle (Total)
system.cpu.fetch.rateDist::7                    62869      0.12%     98.24% # Number of instructions fetched each cycle (Total)
system.cpu.fetch.rateDist::8                   942374      1.76%    100.00% # Number of instructions fetched each cycle (Total)
system.cpu.fetch.rateDist::overflows                0      0.00%    100.00% # Number of instructions fetched each cycle (Total)
system.cpu.fetch.rateDist::min_value                0                       # Number of instructions fetched each cycle (Total)
system.cpu.fetch.rateDist::max_value                8                       # Number of instructions fetched each cycle (Total)
system.cpu.fetch.rateDist::total             53663800                       # Number of instructions fetched each cycle (Total)
system.cpu.idleCycles                           72674                       # Total number of cycles that the CPU has spent unscheduled due to idling
system.cpu.iew.branchMispredicts                 2545                       # Number of branch mispredicts detected at execute
system.cpu.iew.exec_branches                   995714                       # Number of branches executed
system.cpu.iew.exec_nop                           284                       # number of nop insts executed
system.cpu.iew.exec_rate                     0.202586                       # Inst execution rate
system.cpu.iew.exec_refs                      6902014                       # number of memory reference insts executed
system.cpu.iew.exec_stores                    6876638                       # Number of stores executed
system.cpu.iew.exec_swp                             0                       # number of swp insts executed
system.cpu.iew.iewBlockCycles                   70695                       # Number of cycles IEW is blocking
system.cpu.iew.iewDispLoadInsts                 21038                       # Number of dispatched load instructions
system.cpu.iew.iewDispNonSpecInsts                197                       # Number of dispatched non-speculative instructions
system.cpu.iew.iewDispSquashedInsts               607                       # Number of squashed instructions skipped by dispatch
system.cpu.iew.iewDispStoreInsts              6882418                       # Number of dispatched store instructions
system.cpu.iew.iewDispatchedInsts            10895607                       # Number of instructions dispatched to IQ
system.cpu.iew.iewExecLoadInsts                 25376                       # Number of load instructions executed
system.cpu.iew.iewExecSquashedInsts              5038                       # Number of squashed instructions skipped in execute
system.cpu.iew.iewExecutedInsts              10886232                       # Number of executed instructions
system.cpu.iew.iewIQFullEvents                      9                       # Number of times the IQ has become full, causing a stall
system.cpu.iew.iewIdleCycles                        0                       # Number of cycles IEW is idle
system.cpu.iew.iewLSQFullEvents               9655031                       # Number of times the LSQ has become full, causing a stall
system.cpu.iew.iewSquashCycles                  14666                       # Number of cycles IEW is squashing
system.cpu.iew.iewUnblockCycles               9646407                       # Number of cycles IEW is unblocking
system.cpu.iew.lsq.thread0.blockedLoads             0                       # Number of blocked loads due to partial load-store forwarding
system.cpu.iew.lsq.thread0.cacheBlocked        497841                       # Number of times an access to memory failed due to the cache being blocked
system.cpu.iew.lsq.thread0.forwLoads              476                       # Number of loads that had data forwarded from stores
system.cpu.iew.lsq.thread0.ignoredResponses            6                       # Number of memory responses ignored because the instruction is squashed
system.cpu.iew.lsq.thread0.invAddrLoads             0                       # Number of loads ignored due to an invalid address
system.cpu.iew.lsq.thread0.invAddrSwpfs             0                       # Number of software prefetches ignored due to an invalid address
system.cpu.iew.lsq.thread0.memOrderViolation           51                       # Number of memory ordering violations
system.cpu.iew.lsq.thread0.rescheduledLoads          568                       # Number of loads that were rescheduled
system.cpu.iew.lsq.thread0.squashedLoads         4564                       # Number of loads squashed
system.cpu.iew.lsq.thread0.squashedStores       414487                       # Number of stores squashed
system.cpu.iew.memOrderViolationEvents             51                       # Number of memory order violations
system.cpu.iew.predictedNotTakenIncorrect         1745                       # Number of branches that were predicted not taken incorrectly
system.cpu.iew.predictedTakenIncorrect            800                       # Number of branches that were predicted taken incorrectly
system.cpu.iew.wb_consumers                   8002948                       # num instructions consuming a value
system.cpu.iew.wb_count                      10670891                       # cumulative count of insts written-back
system.cpu.iew.wb_fanout                     0.313093                       # average fanout of values written-back
system.cpu.iew.wb_producers                   2505666                       # num instructions producing a value
system.cpu.iew.wb_rate                       0.198578                       # insts written-back per cycle
system.cpu.iew.wb_sent                       10879613                       # cumulative count of insts sent to commit
system.cpu.int_regfile_reads                 24181958                       # number of integer regfile reads
system.cpu.int_regfile_writes                 2947987                       # number of integer regfile writes
system.cpu.ipc                               0.186093                       # IPC: Instructions Per Cycle
system.cpu.ipc_total                         0.186093                       # IPC: Total IPC of All Threads
system.cpu.iq.FU_type_0::No_OpClass                19      0.00%      0.00% # Type of FU issued
system.cpu.iq.FU_type_0::IntAlu               3921472     36.01%     36.01% # Type of FU issued
system.cpu.iq.FU_type_0::IntMult                  179      0.00%     36.01% # Type of FU issued
system.cpu.iq.FU_type_0::IntDiv                    27      0.00%     36.01% # Type of FU issued
system.cpu.iq.FU_type_0::FloatAdd                   5      0.00%     36.01% # Type of FU issued
system.cpu.iq.FU_type_0::FloatCmp                   0      0.00%     36.01% # Type of FU issued
system.cpu.iq.FU_type_0::FloatCvt               32427      0.30%     36.31% # Type of FU issued
system.cpu.iq.FU_type_0::FloatMult              32434      0.30%     36.60% # Type of FU issued
system.cpu.iq.FU_type_0::FloatMultAcc               0      0.00%     36.60% # Type of FU issued
system.cpu.iq.FU_type_0::FloatDiv                   3      0.00%     36.60% # Type of FU issued
system.cpu.iq.FU_type_0::FloatMisc                 21      0.00%     36.60% # Type of FU issued
system.cpu.iq.FU_type_0::FloatSqrt                  0      0.00%     36.60% # Type of FU issued
system.cpu.iq.FU_type_0::SimdAdd                   21      0.00%     36.60% # Type of FU issued
system.cpu.iq.FU_type_0::SimdAddAcc                 0      0.00%     36.60% # Type of FU issued
system.cpu.iq.FU_type_0::SimdAlu                   14      0.00%     36.60% # Type of FU issued
system.cpu.iq.FU_type_0::SimdCmp                   16      0.00%     36.60% # Type of FU issued
system.cpu.iq.FU_type_0::SimdCvt                    0      0.00%     36.60% # Type of FU issued
system.cpu.iq.FU_type_0::SimdMisc                  58      0.00%     36.60% # Type of FU issued
system.cpu.iq.FU_type_0::SimdMult                   0      0.00%     36.60% # Type of FU issued
system.cpu.iq.FU_type_0::SimdMultAcc                0      0.00%     36.60% # Type of FU issued
system.cpu.iq.FU_type_0::SimdShift                  0      0.00%     36.60% # Type of FU issued
system.cpu.iq.FU_type_0::SimdShiftAcc               0      0.00%     36.60% # Type of FU issued
system.cpu.iq.FU_type_0::SimdDiv                    0      0.00%     36.60% # Type of FU issued
system.cpu.iq.FU_type_0::SimdSqrt                   0      0.00%     36.60% # Type of FU issued
system.cpu.iq.FU_type_0::SimdFloatAdd               0      0.00%     36.60% # Type of FU issued
system.cpu.iq.FU_type_0::SimdFloatAlu               0      0.00%     36.60% # Type of FU issued
system.cpu.iq.FU_type_0::SimdFloatCmp               0      0.00%     36.60% # Type of FU issued
system.cpu.iq.FU_type_0::SimdFloatCvt               0      0.00%     36.60% # Type of FU issued
system.cpu.iq.FU_type_0::SimdFloatDiv               0      0.00%     36.60% # Type of FU issued
system.cpu.iq.FU_type_0::SimdFloatMisc              0      0.00%     36.60% # Type of FU issued
system.cpu.iq.FU_type_0::SimdFloatMult              0      0.00%     36.60% # Type of FU issued
system.cpu.iq.FU_type_0::SimdFloatMultAcc            0      0.00%     36.60% # Type of FU issued
system.cpu.iq.FU_type_0::SimdFloatSqrt              0      0.00%     36.60% # Type of FU issued
system.cpu.iq.FU_type_0::SimdReduceAdd              0      0.00%     36.60% # Type of FU issued
system.cpu.iq.FU_type_0::SimdReduceAlu              0      0.00%     36.60% # Type of FU issued
system.cpu.iq.FU_type_0::SimdReduceCmp              0      0.00%     36.60% # Type of FU issued
system.cpu.iq.FU_type_0::SimdFloatReduceAdd            0      0.00%     36.60% # Type of FU issued
system.cpu.iq.FU_type_0::SimdFloatReduceCmp            0      0.00%     36.60% # Type of FU issued
system.cpu.iq.FU_type_0::SimdAes                    0      0.00%     36.60% # Type of FU issued
system.cpu.iq.FU_type_0::SimdAesMix                 0      0.00%     36.60% # Type of FU issued
system.cpu.iq.FU_type_0::SimdSha1Hash               0      0.00%     36.60% # Type of FU issued
system.cpu.iq.FU_type_0::SimdSha1Hash2              0      0.00%     36.60% # Type of FU issued
system.cpu.iq.FU_type_0::SimdSha256Hash             0      0.00%     36.60% # Type of FU issued
system.cpu.iq.FU_type_0::SimdSha256Hash2            0      0.00%     36.60% # Type of FU issued
system.cpu.iq.FU_type_0::SimdShaSigma2              0      0.00%     36.60% # Type of FU issued
system.cpu.iq.FU_type_0::SimdShaSigma3              0      0.00%     36.60% # Type of FU issued
system.cpu.iq.FU_type_0::SimdPredAlu                0      0.00%     36.60% # Type of FU issued
system.cpu.iq.FU_type_0::MemRead                25942      0.24%     36.84% # Type of FU issued
system.cpu.iq.FU_type_0::MemWrite             6878635     63.16%    100.00% # Type of FU issued
system.cpu.iq.FU_type_0::FloatMemRead               0      0.00%    100.00% # Type of FU issued
system.cpu.iq.FU_type_0::FloatMemWrite              0      0.00%    100.00% # Type of FU issued
system.cpu.iq.FU_type_0::IprAccess                  0      0.00%    100.00% # Type of FU issued
system.cpu.iq.FU_type_0::InstPrefetch               0      0.00%    100.00% # Type of FU issued
system.cpu.iq.FU_type_0::total               10891273                       # Type of FU issued
system.cpu.iq.fp_alu_accesses                       0                       # Number of floating point alu accesses
system.cpu.iq.fp_inst_queue_reads                   0                       # Number of floating instruction queue reads
system.cpu.iq.fp_inst_queue_wakeup_accesses            0                       # Number of floating instruction queue wakeup accesses
system.cpu.iq.fp_inst_queue_writes                  0                       # Number of floating instruction queue writes
system.cpu.iq.fu_busy_cnt                      945500                       # FU busy when requested
system.cpu.iq.fu_busy_rate                   0.086813                       # FU busy rate (busy events/executed inst)
system.cpu.iq.fu_full::No_OpClass                   0      0.00%      0.00% # attempts to use FU when none available
system.cpu.iq.fu_full::IntAlu                   14824      1.57%      1.57% # attempts to use FU when none available
system.cpu.iq.fu_full::IntMult                      0      0.00%      1.57% # attempts to use FU when none available
system.cpu.iq.fu_full::IntDiv                       0      0.00%      1.57% # attempts to use FU when none available
system.cpu.iq.fu_full::FloatAdd                     0      0.00%      1.57% # attempts to use FU when none available
system.cpu.iq.fu_full::FloatCmp                     0      0.00%      1.57% # attempts to use FU when none available
system.cpu.iq.fu_full::FloatCvt                     0      0.00%      1.57% # attempts to use FU when none available
system.cpu.iq.fu_full::FloatMult                    0      0.00%      1.57% # attempts to use FU when none available
system.cpu.iq.fu_full::FloatMultAcc                 0      0.00%      1.57% # attempts to use FU when none available
system.cpu.iq.fu_full::FloatDiv                    12      0.00%      1.57% # attempts to use FU when none available
system.cpu.iq.fu_full::FloatMisc                    0      0.00%      1.57% # attempts to use FU when none available
system.cpu.iq.fu_full::FloatSqrt                    0      0.00%      1.57% # attempts to use FU when none available
system.cpu.iq.fu_full::SimdAdd                      0      0.00%      1.57% # attempts to use FU when none available
system.cpu.iq.fu_full::SimdAddAcc                   0      0.00%      1.57% # attempts to use FU when none available
system.cpu.iq.fu_full::SimdAlu                      1      0.00%      1.57% # attempts to use FU when none available
system.cpu.iq.fu_full::SimdCmp                      2      0.00%      1.57% # attempts to use FU when none available
system.cpu.iq.fu_full::SimdCvt                      0      0.00%      1.57% # attempts to use FU when none available
system.cpu.iq.fu_full::SimdMisc                     0      0.00%      1.57% # attempts to use FU when none available
system.cpu.iq.fu_full::SimdMult                     0      0.00%      1.57% # attempts to use FU when none available
system.cpu.iq.fu_full::SimdMultAcc                  0      0.00%      1.57% # attempts to use FU when none available
system.cpu.iq.fu_full::SimdShift                    0      0.00%      1.57% # attempts to use FU when none available
system.cpu.iq.fu_full::SimdShiftAcc                 0      0.00%      1.57% # attempts to use FU when none available
system.cpu.iq.fu_full::SimdDiv                      0      0.00%      1.57% # attempts to use FU when none available
system.cpu.iq.fu_full::SimdSqrt                     0      0.00%      1.57% # attempts to use FU when none available
system.cpu.iq.fu_full::SimdFloatAdd                 0      0.00%      1.57% # attempts to use FU when none available
system.cpu.iq.fu_full::SimdFloatAlu                 0      0.00%      1.57% # attempts to use FU when none available
system.cpu.iq.fu_full::SimdFloatCmp                 0      0.00%      1.57% # attempts to use FU when none available
system.cpu.iq.fu_full::SimdFloatCvt                 0      0.00%      1.57% # attempts to use FU when none available
system.cpu.iq.fu_full::SimdFloatDiv                 0      0.00%      1.57% # attempts to use FU when none available
system.cpu.iq.fu_full::SimdFloatMisc                0      0.00%      1.57% # attempts to use FU when none available
system.cpu.iq.fu_full::SimdFloatMult                0      0.00%      1.57% # attempts to use FU when none available
system.cpu.iq.fu_full::SimdFloatMultAcc             0      0.00%      1.57% # attempts to use FU when none available
system.cpu.iq.fu_full::SimdFloatSqrt                0      0.00%      1.57% # attempts to use FU when none available
system.cpu.iq.fu_full::SimdReduceAdd                0      0.00%      1.57% # attempts to use FU when none available
system.cpu.iq.fu_full::SimdReduceAlu                0      0.00%      1.57% # attempts to use FU when none available
system.cpu.iq.fu_full::SimdReduceCmp                0      0.00%      1.57% # attempts to use FU when none available
system.cpu.iq.fu_full::SimdFloatReduceAdd            0      0.00%      1.57% # attempts to use FU when none available
system.cpu.iq.fu_full::SimdFloatReduceCmp            0      0.00%      1.57% # attempts to use FU when none available
system.cpu.iq.fu_full::SimdAes                      0      0.00%      1.57% # attempts to use FU when none available
system.cpu.iq.fu_full::SimdAesMix                   0      0.00%      1.57% # attempts to use FU when none available
system.cpu.iq.fu_full::SimdSha1Hash                 0      0.00%      1.57% # attempts to use FU when none available
system.cpu.iq.fu_full::SimdSha1Hash2                0      0.00%      1.57% # attempts to use FU when none available
system.cpu.iq.fu_full::SimdSha256Hash               0      0.00%      1.57% # attempts to use FU when none available
system.cpu.iq.fu_full::SimdSha256Hash2              0      0.00%      1.57% # attempts to use FU when none available
system.cpu.iq.fu_full::SimdShaSigma2                0      0.00%      1.57% # attempts to use FU when none available
system.cpu.iq.fu_full::SimdShaSigma3                0      0.00%      1.57% # attempts to use FU when none available
system.cpu.iq.fu_full::SimdPredAlu                  0      0.00%      1.57% # attempts to use FU when none available
system.cpu.iq.fu_full::MemRead                    422      0.04%      1.61% # attempts to use FU when none available
system.cpu.iq.fu_full::MemWrite                930239     98.39%    100.00% # attempts to use FU when none available
system.cpu.iq.fu_full::FloatMemRead                 0      0.00%    100.00% # attempts to use FU when none available
system.cpu.iq.fu_full::FloatMemWrite                0      0.00%    100.00% # attempts to use FU when none available
system.cpu.iq.fu_full::IprAccess                    0      0.00%    100.00% # attempts to use FU when none available
system.cpu.iq.fu_full::InstPrefetch                 0      0.00%    100.00% # attempts to use FU when none available
system.cpu.iq.int_alu_accesses               11517282                       # Number of integer alu accesses
system.cpu.iq.int_inst_queue_reads           75754622                       # Number of integer instruction queue reads
system.cpu.iq.int_inst_queue_wakeup_accesses     10357357                       # Number of integer instruction queue wakeup accesses
system.cpu.iq.int_inst_queue_writes          11227352                       # Number of integer instruction queue writes
system.cpu.iq.iqInstsAdded                   10895126                       # Number of instructions added to the IQ (excludes non-spec)
system.cpu.iq.iqInstsIssued                  10891273                       # Number of instructions issued
system.cpu.iq.iqNonSpecInstsAdded                 197                       # Number of non-speculative instructions added to the IQ
system.cpu.iq.iqSquashedInstsExamined          673493                       # Number of squashed instructions iterated over during squash; mainly for profiling
system.cpu.iq.iqSquashedInstsIssued              1461                       # Number of squashed instructions issued
system.cpu.iq.iqSquashedNonSpecRemoved             35                       # Number of squashed non-spec instructions that were removed
system.cpu.iq.iqSquashedOperandsExamined       657136                       # Number of squashed operands that are examined and possibly removed from graph
system.cpu.iq.issued_per_cycle::samples      53663800                       # Number of insts issued each cycle
system.cpu.iq.issued_per_cycle::mean         0.202954                       # Number of insts issued each cycle
system.cpu.iq.issued_per_cycle::stdev        0.949135                       # Number of insts issued each cycle
system.cpu.iq.issued_per_cycle::underflows            0      0.00%      0.00% # Number of insts issued each cycle
system.cpu.iq.issued_per_cycle::0            50408829     93.93%     93.93% # Number of insts issued each cycle
system.cpu.iq.issued_per_cycle::1             1037065      1.93%     95.87% # Number of insts issued each cycle
system.cpu.iq.issued_per_cycle::2              406155      0.76%     96.62% # Number of insts issued each cycle
system.cpu.iq.issued_per_cycle::3              238997      0.45%     97.07% # Number of insts issued each cycle
system.cpu.iq.issued_per_cycle::4              350316      0.65%     97.72% # Number of insts issued each cycle
system.cpu.iq.issued_per_cycle::5              659921      1.23%     98.95% # Number of insts issued each cycle
system.cpu.iq.issued_per_cycle::6              389222      0.73%     99.68% # Number of insts issued each cycle
system.cpu.iq.issued_per_cycle::7               97654      0.18%     99.86% # Number of insts issued each cycle
system.cpu.iq.issued_per_cycle::8               75641      0.14%    100.00% # Number of insts issued each cycle
system.cpu.iq.issued_per_cycle::overflows            0      0.00%    100.00% # Number of insts issued each cycle
system.cpu.iq.issued_per_cycle::min_value            0                       # Number of insts issued each cycle
system.cpu.iq.issued_per_cycle::max_value            8                       # Number of insts issued each cycle
system.cpu.iq.issued_per_cycle::total        53663800                       # Number of insts issued each cycle
system.cpu.iq.rate                           0.202679                       # Inst issue rate
system.cpu.iq.vec_alu_accesses                 319472                       # Number of vector alu accesses
system.cpu.iq.vec_inst_queue_reads             638682                       # Number of vector instruction queue reads
system.cpu.iq.vec_inst_queue_wakeup_accesses       313534                       # Number of vector instruction queue wakeup accesses
system.cpu.iq.vec_inst_queue_writes            341514                       # Number of vector instruction queue writes
system.cpu.itb.accesses                             0                       # DTB accesses
system.cpu.itb.align_faults                         0                       # Number of TLB faults due to alignment restrictions
system.cpu.itb.domain_faults                        0                       # Number of TLB faults due to domain restrictions
system.cpu.itb.flush_entries                        0                       # Number of entries that have been flushed from TLB
system.cpu.itb.flush_tlb                            0                       # Number of times complete TLB was flushed
system.cpu.itb.flush_tlb_asid                       0                       # Number of times TLB was flushed by ASID
system.cpu.itb.flush_tlb_mva                        0                       # Number of times TLB was flushed by MVA
system.cpu.itb.flush_tlb_mva_asid                   0                       # Number of times TLB was flushed by MVA & ASID
system.cpu.itb.hits                                 0                       # DTB hits
system.cpu.itb.inst_accesses                        0                       # ITB inst accesses
system.cpu.itb.inst_hits                            0                       # ITB inst hits
system.cpu.itb.inst_misses                          0                       # ITB inst misses
system.cpu.itb.misses                               0                       # DTB misses
system.cpu.itb.perms_faults                         0                       # Number of TLB faults due to permissions restrictions
system.cpu.itb.prefetch_faults                      0                       # Number of TLB faults due to prefetch
system.cpu.itb.read_accesses                        0                       # DTB read accesses
system.cpu.itb.read_hits                            0                       # DTB read hits
system.cpu.itb.read_misses                          0                       # DTB read misses
system.cpu.itb.stage2_mmu.stage2_tlb.accesses            0                       # DTB accesses
system.cpu.itb.stage2_mmu.stage2_tlb.align_faults            0                       # Number of TLB faults due to alignment restrictions
system.cpu.itb.stage2_mmu.stage2_tlb.domain_faults            0                       # Number of TLB faults due to domain restrictions
system.cpu.itb.stage2_mmu.stage2_tlb.flush_entries            0                       # Number of entries that have been flushed from TLB
system.cpu.itb.stage2_mmu.stage2_tlb.flush_tlb            0                       # Number of times complete TLB was flushed
system.cpu.itb.stage2_mmu.stage2_tlb.flush_tlb_asid            0                       # Number of times TLB was flushed by ASID
system.cpu.itb.stage2_mmu.stage2_tlb.flush_tlb_mva            0                       # Number of times TLB was flushed by MVA
system.cpu.itb.stage2_mmu.stage2_tlb.flush_tlb_mva_asid            0                       # Number of times TLB was flushed by MVA & ASID
system.cpu.itb.stage2_mmu.stage2_tlb.hits            0                       # DTB hits
system.cpu.itb.stage2_mmu.stage2_tlb.inst_accesses            0                       # ITB inst accesses
system.cpu.itb.stage2_mmu.stage2_tlb.inst_hits            0                       # ITB inst hits
system.cpu.itb.stage2_mmu.stage2_tlb.inst_misses            0                       # ITB inst misses
system.cpu.itb.stage2_mmu.stage2_tlb.misses            0                       # DTB misses
system.cpu.itb.stage2_mmu.stage2_tlb.perms_faults            0                       # Number of TLB faults due to permissions restrictions
system.cpu.itb.stage2_mmu.stage2_tlb.prefetch_faults            0                       # Number of TLB faults due to prefetch
system.cpu.itb.stage2_mmu.stage2_tlb.read_accesses            0                       # DTB read accesses
system.cpu.itb.stage2_mmu.stage2_tlb.read_hits            0                       # DTB read hits
system.cpu.itb.stage2_mmu.stage2_tlb.read_misses            0                       # DTB read misses
system.cpu.itb.stage2_mmu.stage2_tlb.walker.walkRequestOrigin_Requested::Data            0                       # Table walker requests started/completed, data/inst
system.cpu.itb.stage2_mmu.stage2_tlb.walker.walkRequestOrigin_Requested::Inst            0                       # Table walker requests started/completed, data/inst
system.cpu.itb.stage2_mmu.stage2_tlb.walker.walkRequestOrigin_Requested::total            0                       # Table walker requests started/completed, data/inst
system.cpu.itb.stage2_mmu.stage2_tlb.walker.walkRequestOrigin_Completed::Data            0                       # Table walker requests started/completed, data/inst
system.cpu.itb.stage2_mmu.stage2_tlb.walker.walkRequestOrigin_Completed::Inst            0                       # Table walker requests started/completed, data/inst
system.cpu.itb.stage2_mmu.stage2_tlb.walker.walkRequestOrigin_Completed::total            0                       # Table walker requests started/completed, data/inst
system.cpu.itb.stage2_mmu.stage2_tlb.walker.walkRequestOrigin::total            0                       # Table walker requests started/completed, data/inst
system.cpu.itb.stage2_mmu.stage2_tlb.walker.walks            0                       # Table walker walks requested
system.cpu.itb.stage2_mmu.stage2_tlb.write_accesses            0                       # DTB write accesses
system.cpu.itb.stage2_mmu.stage2_tlb.write_hits            0                       # DTB write hits
system.cpu.itb.stage2_mmu.stage2_tlb.write_misses            0                       # DTB write misses
system.cpu.itb.walker.walkRequestOrigin_Requested::Data            0                       # Table walker requests started/completed, data/inst
system.cpu.itb.walker.walkRequestOrigin_Requested::Inst            0                       # Table walker requests started/completed, data/inst
system.cpu.itb.walker.walkRequestOrigin_Requested::total            0                       # Table walker requests started/completed, data/inst
system.cpu.itb.walker.walkRequestOrigin_Completed::Data            0                       # Table walker requests started/completed, data/inst
system.cpu.itb.walker.walkRequestOrigin_Completed::Inst            0                       # Table walker requests started/completed, data/inst
system.cpu.itb.walker.walkRequestOrigin_Completed::total            0                       # Table walker requests started/completed, data/inst
system.cpu.itb.walker.walkRequestOrigin::total            0                       # Table walker requests started/completed, data/inst
system.cpu.itb.walker.walks                         0                       # Table walker walks requested
system.cpu.itb.write_accesses                       0                       # DTB write accesses
system.cpu.itb.write_hits                           0                       # DTB write hits
system.cpu.itb.write_misses                         0                       # DTB write misses
system.cpu.memDep0.conflictingLoads                55                       # Number of conflicting loads.
system.cpu.memDep0.conflictingStores              426                       # Number of conflicting stores.
system.cpu.memDep0.insertedLoads                21038                       # Number of loads inserted to the mem dependence unit.
system.cpu.memDep0.insertedStores             6882418                       # Number of stores inserted to the mem dependence unit.
system.cpu.misc_regfile_reads                10920112                       # number of misc regfile reads
system.cpu.misc_regfile_writes                  60549                       # number of misc regfile writes
system.cpu.numCycles                         53736474                       # number of cpu cycles simulated
system.cpu.numWorkItemsCompleted                    0                       # number of work items this cpu completed
system.cpu.numWorkItemsStarted                      0                       # number of work items this cpu started
system.cpu.rename.BlockCycles                 9717215                       # Number of cycles rename is blocking
system.cpu.rename.CommittedMaps               5663091                       # Number of HB maps that are committed
system.cpu.rename.IQFullEvents                     52                       # Number of times rename has blocked due to IQ full
system.cpu.rename.IdleCycles                   664983                       # Number of cycles rename is idle
system.cpu.rename.LQFullEvents                      2                       # Number of times rename has blocked due to LQ full
system.cpu.rename.ROBFullEvents                     9                       # Number of times rename has blocked due to ROB full
system.cpu.rename.RenameLookups              28250692                       # Number of register rename lookups that rename has made
system.cpu.rename.RenamedInsts               10923019                       # Number of instructions processed by rename
system.cpu.rename.RenamedOperands             6064106                       # Number of destination operands rename has renamed
system.cpu.rename.RunCycles                   1329360                       # Number of cycles rename is running
system.cpu.rename.SQFullEvents               41854606                       # Number of times rename has blocked due to SQ full
system.cpu.rename.SquashCycles                  14666                       # Number of cycles rename is squashing
system.cpu.rename.UnblockCycles              41917807                       # Number of cycles rename is unblocking
system.cpu.rename.UndoneMaps                   400996                       # Number of HB maps that are undone due to squashing
system.cpu.rename.int_rename_lookups         24252809                       # Number of integer rename lookups
system.cpu.rename.serializeStallCycles          19769                       # count of cycles rename stalled for serializing inst
system.cpu.rename.serializingInsts                639                       # count of serializing insts renamed
system.cpu.rename.skidInsts                   2991253                       # count of insts added to the skid buffer
system.cpu.rename.tempSerializingInsts            201                       # count of temporary serializing insts renamed
system.cpu.rename.vec_rename_lookups           320496                       # Number of vector rename lookups
system.cpu.rob.rob_reads                     63824435                       # The number of ROB reads
system.cpu.rob.rob_writes                    21775648                       # The number of ROB writes
system.cpu.timesIdled                            1498                       # Number of times that the entire CPU went into an idle state and unscheduled itself
system.cpu.vec_regfile_reads                   317878                       # number of vector regfile reads
system.cpu.vec_regfile_writes                   64528                       # number of vector regfile writes
system.cpu.workload.numSyscalls                    61                       # Number of system calls
system.membus.snoop_filter.hit_multi_requests            0                       # Number of requests hitting in the snoop filter with multiple (>1) holders of the requested data.
system.membus.snoop_filter.hit_multi_snoops            0                       # Number of snoops hitting in the snoop filter with multiple (>1) holders of the requested data.
system.membus.snoop_filter.hit_single_requests       756534                       # Number of requests hitting in the snoop filter with a single holder of the requested data.
system.membus.snoop_filter.hit_single_snoops            0                       # Number of snoops hitting in the snoop filter with a single holder of the requested data.
system.membus.snoop_filter.tot_requests       1546095                       # Total number of requests made to the snoop filter.
system.membus.snoop_filter.tot_snoops               0                       # Total number of snoops made to the snoop filter.
system.tol2bus.snoop_filter.hit_multi_requests            4                       # Number of requests hitting in the snoop filter with multiple (>1) holders of the requested data.
system.tol2bus.snoop_filter.hit_multi_snoops            0                       # Number of snoops hitting in the snoop filter with multiple (>1) holders of the requested data.
system.tol2bus.snoop_filter.hit_single_requests       791087                       # Number of requests hitting in the snoop filter with a single holder of the requested data.
system.tol2bus.snoop_filter.hit_single_snoops          256                       # Number of snoops hitting in the snoop filter with a single holder of the requested data.
system.tol2bus.snoop_filter.tot_requests      1583458                       # Total number of requests made to the snoop filter.
system.tol2bus.snoop_filter.tot_snoops            256                       # Total number of snoops made to the snoop filter.
system.membus.trans_dist::ReadResp                997                       # Transaction distribution
system.membus.trans_dist::WritebackDirty       755812                       # Transaction distribution
system.membus.trans_dist::CleanEvict              722                       # Transaction distribution
system.membus.trans_dist::ReadExReq            788458                       # Transaction distribution
system.membus.trans_dist::ReadExResp           788455                       # Transaction distribution
system.membus.trans_dist::ReadSharedReq           997                       # Transaction distribution
system.membus.trans_dist::InvalidateReq           106                       # Transaction distribution
system.membus.pkt_count_system.l2.mem_side::system.mem_ctrls.port      2335547                       # Packet count per connected master and slave (bytes)
system.membus.pkt_count::total                2335547                       # Packet count per connected master and slave (bytes)
system.membus.pkt_size_system.l2.mem_side::system.mem_ctrls.port     98896896                       # Cumulative packet size per connected master and slave (bytes)
system.membus.pkt_size::total                98896896                       # Cumulative packet size per connected master and slave (bytes)
system.membus.snoops                                0                       # Total snoops (count)
system.membus.snoopTraffic                          0                       # Total snoop traffic (bytes)
system.membus.snoop_fanout::samples            789561                       # Request fanout histogram
system.membus.snoop_fanout::mean                    0                       # Request fanout histogram
system.membus.snoop_fanout::stdev                   0                       # Request fanout histogram
system.membus.snoop_fanout::underflows              0      0.00%      0.00% # Request fanout histogram
system.membus.snoop_fanout::0                  789561    100.00%    100.00% # Request fanout histogram
system.membus.snoop_fanout::1                       0      0.00%    100.00% # Request fanout histogram
system.membus.snoop_fanout::overflows               0      0.00%    100.00% # Request fanout histogram
system.membus.snoop_fanout::min_value               0                       # Request fanout histogram
system.membus.snoop_fanout::max_value               0                       # Request fanout histogram
system.membus.snoop_fanout::total              789561                       # Request fanout histogram
system.membus.reqLayer0.occupancy          4721594500                       # Layer occupancy (ticks)
system.membus.reqLayer0.utilization              17.6                       # Layer utilization (%)
system.membus.respLayer1.occupancy         4128437750                       # Layer occupancy (ticks)
system.membus.respLayer1.utilization             15.4                       # Layer utilization (%)
system.membus.power_state.pwrStateResidencyTicks::UNDEFINED  26868235500                       # Cumulative time (in ticks) in various power states
system.tol2bus.trans_dist::ReadResp              3797                       # Transaction distribution
system.tol2bus.trans_dist::WritebackDirty      1544741                       # Transaction distribution
system.tol2bus.trans_dist::WritebackClean         2051                       # Transaction distribution
system.tol2bus.trans_dist::CleanEvict            1085                       # Transaction distribution
system.tol2bus.trans_dist::ReadExReq           788468                       # Transaction distribution
system.tol2bus.trans_dist::ReadExResp          788464                       # Transaction distribution
system.tol2bus.trans_dist::ReadCleanReq          2307                       # Transaction distribution
system.tol2bus.trans_dist::ReadSharedReq         1490                       # Transaction distribution
system.tol2bus.trans_dist::InvalidateReq          106                       # Transaction distribution
system.tol2bus.trans_dist::InvalidateResp          106                       # Transaction distribution
system.tol2bus.pkt_count_system.cpu.icache.mem_side::system.l2.cpu_side         6665                       # Packet count per connected master and slave (bytes)
system.tol2bus.pkt_count_system.cpu.dcache.mem_side::system.l2.cpu_side      2369160                       # Packet count per connected master and slave (bytes)
system.tol2bus.pkt_count::total               2375825                       # Packet count per connected master and slave (bytes)
system.tol2bus.pkt_size_system.cpu.icache.mem_side::system.l2.cpu_side       278912                       # Cumulative packet size per connected master and slave (bytes)
system.tol2bus.pkt_size_system.cpu.dcache.mem_side::system.l2.cpu_side    101048512                       # Cumulative packet size per connected master and slave (bytes)
system.tol2bus.pkt_size::total              101327424                       # Cumulative packet size per connected master and slave (bytes)
system.tol2bus.snoops                          756790                       # Total snoops (count)
system.tol2bus.snoopTraffic                  48371968                       # Total snoop traffic (bytes)
system.tol2bus.snoop_fanout::samples          1549161                       # Request fanout histogram
system.tol2bus.snoop_fanout::mean            0.000168                       # Request fanout histogram
system.tol2bus.snoop_fanout::stdev           0.012954                       # Request fanout histogram
system.tol2bus.snoop_fanout::underflows             0      0.00%      0.00% # Request fanout histogram
system.tol2bus.snoop_fanout::0                1548901     99.98%     99.98% # Request fanout histogram
system.tol2bus.snoop_fanout::1                    260      0.02%    100.00% # Request fanout histogram
system.tol2bus.snoop_fanout::2                      0      0.00%    100.00% # Request fanout histogram
system.tol2bus.snoop_fanout::overflows              0      0.00%    100.00% # Request fanout histogram
system.tol2bus.snoop_fanout::min_value              0                       # Request fanout histogram
system.tol2bus.snoop_fanout::max_value              1                       # Request fanout histogram
system.tol2bus.snoop_fanout::total            1549161                       # Request fanout histogram
system.tol2bus.reqLayer0.occupancy         1582709000                       # Layer occupancy (ticks)
system.tol2bus.reqLayer0.utilization              5.9                       # Layer utilization (%)
system.tol2bus.respLayer1.occupancy        1184984998                       # Layer occupancy (ticks)
system.tol2bus.respLayer1.utilization             4.4                       # Layer utilization (%)
system.tol2bus.respLayer0.occupancy           3460500                       # Layer occupancy (ticks)
system.tol2bus.respLayer0.utilization             0.0                       # Layer utilization (%)
system.tol2bus.power_state.pwrStateResidencyTicks::UNDEFINED  26868235500                       # Cumulative time (in ticks) in various power states
system.voltage_domain.voltage                       1                       # Voltage in Volts
system.clk_domain.clock                          1000                       # Clock period in ticks
system.l2.demand_hits::.cpu.inst                 1435                       # number of demand (read+write) hits
system.l2.demand_hits::.cpu.data                 1374                       # number of demand (read+write) hits
system.l2.demand_hits::total                     2809                       # number of demand (read+write) hits
system.l2.overall_hits::.cpu.inst                1435                       # number of overall hits
system.l2.overall_hits::.cpu.data                1374                       # number of overall hits
system.l2.overall_hits::total                    2809                       # number of overall hits
system.l2.demand_misses::.cpu.inst                872                       # number of demand (read+write) misses
system.l2.demand_misses::.cpu.data             788584                       # number of demand (read+write) misses
system.l2.demand_misses::total                 789456                       # number of demand (read+write) misses
system.l2.overall_misses::.cpu.inst               872                       # number of overall misses
system.l2.overall_misses::.cpu.data            788584                       # number of overall misses
system.l2.overall_misses::total                789456                       # number of overall misses
system.l2.demand_miss_latency::.cpu.inst     68163000                       # number of demand (read+write) miss cycles
system.l2.demand_miss_latency::.cpu.data  83739574500                       # number of demand (read+write) miss cycles
system.l2.demand_miss_latency::total      83807737500                       # number of demand (read+write) miss cycles
system.l2.overall_miss_latency::.cpu.inst     68163000                       # number of overall miss cycles
system.l2.overall_miss_latency::.cpu.data  83739574500                       # number of overall miss cycles
system.l2.overall_miss_latency::total     83807737500                       # number of overall miss cycles
system.l2.demand_accesses::.cpu.inst             2307                       # number of demand (read+write) accesses
system.l2.demand_accesses::.cpu.data           789958                       # number of demand (read+write) accesses
system.l2.demand_accesses::total               792265                       # number of demand (read+write) accesses
system.l2.overall_accesses::.cpu.inst            2307                       # number of overall (read+write) accesses
system.l2.overall_accesses::.cpu.data          789958                       # number of overall (read+write) accesses
system.l2.overall_accesses::total              792265                       # number of overall (read+write) accesses
system.l2.demand_miss_rate::.cpu.inst        0.377980                       # miss rate for demand accesses
system.l2.demand_miss_rate::.cpu.data        0.998261                       # miss rate for demand accesses
system.l2.demand_miss_rate::total            0.996454                       # miss rate for demand accesses
system.l2.overall_miss_rate::.cpu.inst       0.377980                       # miss rate for overall accesses
system.l2.overall_miss_rate::.cpu.data       0.998261                       # miss rate for overall accesses
system.l2.overall_miss_rate::total           0.996454                       # miss rate for overall accesses
system.l2.demand_avg_miss_latency::.cpu.inst 78168.577982                       # average overall miss latency
system.l2.demand_avg_miss_latency::.cpu.data 106189.796521                       # average overall miss latency
system.l2.demand_avg_miss_latency::total 106158.845458                       # average overall miss latency
system.l2.overall_avg_miss_latency::.cpu.inst 78168.577982                       # average overall miss latency
system.l2.overall_avg_miss_latency::.cpu.data 106189.796521                       # average overall miss latency
system.l2.overall_avg_miss_latency::total 106158.845458                       # average overall miss latency
system.l2.blocked_cycles::no_mshrs                  0                       # number of cycles access was blocked
system.l2.blocked_cycles::no_targets                0                       # number of cycles access was blocked
system.l2.blocked::no_mshrs                         0                       # number of cycles access was blocked
system.l2.blocked::no_targets                       0                       # number of cycles access was blocked
system.l2.avg_blocked_cycles::no_mshrs            nan                       # average number of cycles each access was blocked
system.l2.avg_blocked_cycles::no_targets          nan                       # average number of cycles each access was blocked
system.l2.writebacks::.writebacks              755812                       # number of writebacks
system.l2.writebacks::total                    755812                       # number of writebacks
system.l2.demand_mshr_misses::.cpu.inst           872                       # number of demand (read+write) MSHR misses
system.l2.demand_mshr_misses::.cpu.data        788584                       # number of demand (read+write) MSHR misses
system.l2.demand_mshr_misses::total            789456                       # number of demand (read+write) MSHR misses
system.l2.overall_mshr_misses::.cpu.inst          872                       # number of overall MSHR misses
system.l2.overall_mshr_misses::.cpu.data       788584                       # number of overall MSHR misses
system.l2.overall_mshr_misses::total           789456                       # number of overall MSHR misses
system.l2.demand_mshr_miss_latency::.cpu.inst     59443000                       # number of demand (read+write) MSHR miss cycles
system.l2.demand_mshr_miss_latency::.cpu.data  75853774001                       # number of demand (read+write) MSHR miss cycles
system.l2.demand_mshr_miss_latency::total  75913217001                       # number of demand (read+write) MSHR miss cycles
system.l2.overall_mshr_miss_latency::.cpu.inst     59443000                       # number of overall MSHR miss cycles
system.l2.overall_mshr_miss_latency::.cpu.data  75853774001                       # number of overall MSHR miss cycles
system.l2.overall_mshr_miss_latency::total  75913217001                       # number of overall MSHR miss cycles
system.l2.demand_mshr_miss_rate::.cpu.inst     0.377980                       # mshr miss rate for demand accesses
system.l2.demand_mshr_miss_rate::.cpu.data     0.998261                       # mshr miss rate for demand accesses
system.l2.demand_mshr_miss_rate::total       0.996454                       # mshr miss rate for demand accesses
system.l2.overall_mshr_miss_rate::.cpu.inst     0.377980                       # mshr miss rate for overall accesses
system.l2.overall_mshr_miss_rate::.cpu.data     0.998261                       # mshr miss rate for overall accesses
system.l2.overall_mshr_miss_rate::total      0.996454                       # mshr miss rate for overall accesses
system.l2.demand_avg_mshr_miss_latency::.cpu.inst 68168.577982                       # average overall mshr miss latency
system.l2.demand_avg_mshr_miss_latency::.cpu.data 96189.846612                       # average overall mshr miss latency
system.l2.demand_avg_mshr_miss_latency::total 96158.895494                       # average overall mshr miss latency
system.l2.overall_avg_mshr_miss_latency::.cpu.inst 68168.577982                       # average overall mshr miss latency
system.l2.overall_avg_mshr_miss_latency::.cpu.data 96189.846612                       # average overall mshr miss latency
system.l2.overall_avg_mshr_miss_latency::total 96158.895494                       # average overall mshr miss latency
system.l2.replacements                         756790                       # number of replacements
system.l2.WritebackDirty_hits::.writebacks       788929                       # number of WritebackDirty hits
system.l2.WritebackDirty_hits::total           788929                       # number of WritebackDirty hits
system.l2.WritebackDirty_accesses::.writebacks       788929                       # number of WritebackDirty accesses(hits+misses)
system.l2.WritebackDirty_accesses::total       788929                       # number of WritebackDirty accesses(hits+misses)
system.l2.WritebackClean_hits::.writebacks         2048                       # number of WritebackClean hits
system.l2.WritebackClean_hits::total             2048                       # number of WritebackClean hits
system.l2.WritebackClean_accesses::.writebacks         2048                       # number of WritebackClean accesses(hits+misses)
system.l2.WritebackClean_accesses::total         2048                       # number of WritebackClean accesses(hits+misses)
system.l2.ReadExReq_hits::.cpu.data                 9                       # number of ReadExReq hits
system.l2.ReadExReq_hits::total                     9                       # number of ReadExReq hits
system.l2.ReadExReq_misses::.cpu.data          788459                       # number of ReadExReq misses
system.l2.ReadExReq_misses::total              788459                       # number of ReadExReq misses
system.l2.ReadExReq_miss_latency::.cpu.data  83728282000                       # number of ReadExReq miss cycles
system.l2.ReadExReq_miss_latency::total   83728282000                       # number of ReadExReq miss cycles
system.l2.ReadExReq_accesses::.cpu.data        788468                       # number of ReadExReq accesses(hits+misses)
system.l2.ReadExReq_accesses::total            788468                       # number of ReadExReq accesses(hits+misses)
system.l2.ReadExReq_miss_rate::.cpu.data     0.999989                       # miss rate for ReadExReq accesses
system.l2.ReadExReq_miss_rate::total         0.999989                       # miss rate for ReadExReq accesses
system.l2.ReadExReq_avg_miss_latency::.cpu.data 106192.309302                       # average ReadExReq miss latency
system.l2.ReadExReq_avg_miss_latency::total 106192.309302                       # average ReadExReq miss latency
system.l2.ReadExReq_mshr_misses::.cpu.data       788459                       # number of ReadExReq MSHR misses
system.l2.ReadExReq_mshr_misses::total         788459                       # number of ReadExReq MSHR misses
system.l2.ReadExReq_mshr_miss_latency::.cpu.data  75843731501                       # number of ReadExReq MSHR miss cycles
system.l2.ReadExReq_mshr_miss_latency::total  75843731501                       # number of ReadExReq MSHR miss cycles
system.l2.ReadExReq_mshr_miss_rate::.cpu.data     0.999989                       # mshr miss rate for ReadExReq accesses
system.l2.ReadExReq_mshr_miss_rate::total     0.999989                       # mshr miss rate for ReadExReq accesses
system.l2.ReadExReq_avg_mshr_miss_latency::.cpu.data 96192.359401                       # average ReadExReq mshr miss latency
system.l2.ReadExReq_avg_mshr_miss_latency::total 96192.359401                       # average ReadExReq mshr miss latency
system.l2.ReadCleanReq_hits::.cpu.inst           1435                       # number of ReadCleanReq hits
system.l2.ReadCleanReq_hits::total               1435                       # number of ReadCleanReq hits
system.l2.ReadCleanReq_misses::.cpu.inst          872                       # number of ReadCleanReq misses
system.l2.ReadCleanReq_misses::total              872                       # number of ReadCleanReq misses
system.l2.ReadCleanReq_miss_latency::.cpu.inst     68163000                       # number of ReadCleanReq miss cycles
system.l2.ReadCleanReq_miss_latency::total     68163000                       # number of ReadCleanReq miss cycles
system.l2.ReadCleanReq_accesses::.cpu.inst         2307                       # number of ReadCleanReq accesses(hits+misses)
system.l2.ReadCleanReq_accesses::total           2307                       # number of ReadCleanReq accesses(hits+misses)
system.l2.ReadCleanReq_miss_rate::.cpu.inst     0.377980                       # miss rate for ReadCleanReq accesses
system.l2.ReadCleanReq_miss_rate::total      0.377980                       # miss rate for ReadCleanReq accesses
system.l2.ReadCleanReq_avg_miss_latency::.cpu.inst 78168.577982                       # average ReadCleanReq miss latency
system.l2.ReadCleanReq_avg_miss_latency::total 78168.577982                       # average ReadCleanReq miss latency
system.l2.ReadCleanReq_mshr_misses::.cpu.inst          872                       # number of ReadCleanReq MSHR misses
system.l2.ReadCleanReq_mshr_misses::total          872                       # number of ReadCleanReq MSHR misses
system.l2.ReadCleanReq_mshr_miss_latency::.cpu.inst     59443000                       # number of ReadCleanReq MSHR miss cycles
system.l2.ReadCleanReq_mshr_miss_latency::total     59443000                       # number of ReadCleanReq MSHR miss cycles
[...]
system.cpu.dcache.demand_miss_latency::total 117403494863                       # number of demand (read+write) miss cycles
system.cpu.dcache.overall_miss_latency::.cpu.data 117403494863                       # number of overall miss cycles
system.cpu.dcache.overall_miss_latency::total 117403494863                       # number of overall miss cycles
system.cpu.dcache.demand_accesses::.cpu.data      6486811                       # number of demand (read+write) accesses
system.cpu.dcache.demand_accesses::total      6486811                       # number of demand (read+write) accesses
system.cpu.dcache.overall_accesses::.cpu.data      6486880                       # number of overall (read+write) accesses
system.cpu.dcache.overall_accesses::total      6486880                       # number of overall (read+write) accesses
system.cpu.dcache.demand_miss_rate::.cpu.data     0.260760                       # miss rate for demand accesses
system.cpu.dcache.demand_miss_rate::total     0.260760                       # miss rate for demand accesses
system.cpu.dcache.overall_miss_rate::.cpu.data     0.260758                       # miss rate for overall accesses
system.cpu.dcache.overall_miss_rate::total     0.260758                       # miss rate for overall accesses
system.cpu.dcache.demand_avg_miss_latency::.cpu.data 69407.754793                       # average overall miss latency
system.cpu.dcache.demand_avg_miss_latency::total 69407.754793                       # average overall miss latency
system.cpu.dcache.overall_avg_miss_latency::.cpu.data 69407.549628                       # average overall miss latency
system.cpu.dcache.overall_avg_miss_latency::total 69407.549628                       # average overall miss latency
system.cpu.dcache.blocked_cycles::no_mshrs     37328153                       # number of cycles access was blocked
system.cpu.dcache.blocked_cycles::no_targets            0                       # number of cycles access was blocked
system.cpu.dcache.blocked::no_mshrs            502203                       # number of cycles access was blocked
system.cpu.dcache.blocked::no_targets               0                       # number of cycles access was blocked
system.cpu.dcache.avg_blocked_cycles::no_mshrs    74.328813                       # average number of cycles each access was blocked
system.cpu.dcache.avg_blocked_cycles::no_targets          nan                       # average number of cycles each access was blocked
system.cpu.dcache.writebacks::.writebacks       788929                       # number of writebacks
system.cpu.dcache.writebacks::total            788929                       # number of writebacks
system.cpu.dcache.demand_mshr_hits::.cpu.data       901446                       # number of demand (read+write) MSHR hits
system.cpu.dcache.demand_mshr_hits::total       901446                       # number of demand (read+write) MSHR hits
system.cpu.dcache.overall_mshr_hits::.cpu.data       901446                       # number of overall MSHR hits
system.cpu.dcache.overall_mshr_hits::total       901446                       # number of overall MSHR hits
system.cpu.dcache.demand_mshr_misses::.cpu.data       790058                       # number of demand (read+write) MSHR misses
system.cpu.dcache.demand_mshr_misses::total       790058                       # number of demand (read+write) MSHR misses
system.cpu.dcache.overall_mshr_misses::.cpu.data       790063                       # number of overall MSHR misses
system.cpu.dcache.overall_mshr_misses::total       790063                       # number of overall MSHR misses
system.cpu.dcache.demand_mshr_miss_latency::.cpu.data  85769996306                       # number of demand (read+write) MSHR miss cycles
system.cpu.dcache.demand_mshr_miss_latency::total  85769996306                       # number of demand (read+write) MSHR miss cycles
system.cpu.dcache.overall_mshr_miss_latency::.cpu.data  85770587806                       # number of overall MSHR miss cycles
system.cpu.dcache.overall_mshr_miss_latency::total  85770587806                       # number of overall MSHR miss cycles
system.cpu.dcache.demand_mshr_miss_rate::.cpu.data     0.121795                       # mshr miss rate for demand accesses
system.cpu.dcache.demand_mshr_miss_rate::total     0.121795                       # mshr miss rate for demand accesses
system.cpu.dcache.overall_mshr_miss_rate::.cpu.data     0.121794                       # mshr miss rate for overall accesses
system.cpu.dcache.overall_mshr_miss_rate::total     0.121794                       # mshr miss rate for overall accesses
system.cpu.dcache.demand_avg_mshr_miss_latency::.cpu.data 108561.645229                       # average overall mshr miss latency
system.cpu.dcache.demand_avg_mshr_miss_latency::total 108561.645229                       # average overall mshr miss latency
system.cpu.dcache.overall_avg_mshr_miss_latency::.cpu.data 108561.706859                       # average overall mshr miss latency
system.cpu.dcache.overall_avg_mshr_miss_latency::total 108561.706859                       # average overall mshr miss latency
system.cpu.dcache.replacements                 789036                       # number of replacements
system.cpu.dcache.ReadReq_hits::.cpu.data        16866                       # number of ReadReq hits
system.cpu.dcache.ReadReq_hits::total           16866                       # number of ReadReq hits
system.cpu.dcache.ReadReq_misses::.cpu.data         2121                       # number of ReadReq misses
system.cpu.dcache.ReadReq_misses::total          2121                       # number of ReadReq misses
system.cpu.dcache.ReadReq_miss_latency::.cpu.data     47479500                       # number of ReadReq miss cycles
system.cpu.dcache.ReadReq_miss_latency::total     47479500                       # number of ReadReq miss cycles
system.cpu.dcache.ReadReq_accesses::.cpu.data        18987                       # number of ReadReq accesses(hits+misses)
system.cpu.dcache.ReadReq_accesses::total        18987                       # number of ReadReq accesses(hits+misses)
system.cpu.dcache.ReadReq_miss_rate::.cpu.data     0.111708                       # miss rate for ReadReq accesses
system.cpu.dcache.ReadReq_miss_rate::total     0.111708                       # miss rate for ReadReq accesses
system.cpu.dcache.ReadReq_avg_miss_latency::.cpu.data 22385.431400                       # average ReadReq miss latency
system.cpu.dcache.ReadReq_avg_miss_latency::total 22385.431400                       # average ReadReq miss latency
system.cpu.dcache.ReadReq_mshr_hits::.cpu.data          637                       # number of ReadReq MSHR hits
system.cpu.dcache.ReadReq_mshr_hits::total          637                       # number of ReadReq MSHR hits
system.cpu.dcache.ReadReq_mshr_misses::.cpu.data         1484                       # number of ReadReq MSHR misses
system.cpu.dcache.ReadReq_mshr_misses::total         1484                       # number of ReadReq MSHR misses
system.cpu.dcache.ReadReq_mshr_miss_latency::.cpu.data     28307500                       # number of ReadReq MSHR miss cycles
system.cpu.dcache.ReadReq_mshr_miss_latency::total     28307500                       # number of ReadReq MSHR miss cycles
system.cpu.dcache.ReadReq_mshr_miss_rate::.cpu.data     0.078159                       # mshr miss rate for ReadReq accesses
system.cpu.dcache.ReadReq_mshr_miss_rate::total     0.078159                       # mshr miss rate for ReadReq accesses
system.cpu.dcache.ReadReq_avg_mshr_miss_latency::.cpu.data 19075.134771                       # average ReadReq mshr miss latency
system.cpu.dcache.ReadReq_avg_mshr_miss_latency::total 19075.134771                       # average ReadReq mshr miss latency
system.cpu.dcache.WriteReq_hits::.cpu.data      4778421                       # number of WriteReq hits
system.cpu.dcache.WriteReq_hits::total        4778421                       # number of WriteReq hits
system.cpu.dcache.WriteReq_misses::.cpu.data      1689282                       # number of WriteReq misses
system.cpu.dcache.WriteReq_misses::total      1689282                       # number of WriteReq misses
system.cpu.dcache.WriteReq_miss_latency::.cpu.data 117352807912                       # number of WriteReq miss cycles
system.cpu.dcache.WriteReq_miss_latency::total 117352807912                       # number of WriteReq miss cycles
system.cpu.dcache.WriteReq_accesses::.cpu.data      6467703                       # number of WriteReq accesses(hits+misses)
system.cpu.dcache.WriteReq_accesses::total      6467703                       # number of WriteReq accesses(hits+misses)
system.cpu.dcache.WriteReq_miss_rate::.cpu.data     0.261187                       # miss rate for WriteReq accesses
system.cpu.dcache.WriteReq_miss_rate::total     0.261187                       # miss rate for WriteReq accesses
system.cpu.dcache.WriteReq_avg_miss_latency::.cpu.data 69469.045377                       # average WriteReq miss latency
system.cpu.dcache.WriteReq_avg_miss_latency::total 69469.045377                       # average WriteReq miss latency
system.cpu.dcache.WriteReq_mshr_hits::.cpu.data       900809                       # number of WriteReq MSHR hits
system.cpu.dcache.WriteReq_mshr_hits::total       900809                       # number of WriteReq MSHR hits
system.cpu.dcache.WriteReq_mshr_misses::.cpu.data       788473                       # number of WriteReq MSHR misses
system.cpu.dcache.WriteReq_mshr_misses::total       788473                       # number of WriteReq MSHR misses
system.cpu.dcache.WriteReq_mshr_miss_latency::.cpu.data  85738582355                       # number of WriteReq MSHR miss cycles
system.cpu.dcache.WriteReq_mshr_miss_latency::total  85738582355                       # number of WriteReq MSHR miss cycles
system.cpu.dcache.WriteReq_mshr_miss_rate::.cpu.data     0.121909                       # mshr miss rate for WriteReq accesses
system.cpu.dcache.WriteReq_mshr_miss_rate::total     0.121909                       # mshr miss rate for WriteReq accesses
system.cpu.dcache.WriteReq_avg_mshr_miss_latency::.cpu.data 108740.035937                       # average WriteReq mshr miss latency
system.cpu.dcache.WriteReq_avg_mshr_miss_latency::total 108740.035937                       # average WriteReq mshr miss latency
system.cpu.dcache.SoftPFReq_hits::.cpu.data           64                       # number of SoftPFReq hits
system.cpu.dcache.SoftPFReq_hits::total            64                       # number of SoftPFReq hits
system.cpu.dcache.SoftPFReq_misses::.cpu.data            5                       # number of SoftPFReq misses
system.cpu.dcache.SoftPFReq_misses::total            5                       # number of SoftPFReq misses
system.cpu.dcache.SoftPFReq_accesses::.cpu.data           69                       # number of SoftPFReq accesses(hits+misses)
system.cpu.dcache.SoftPFReq_accesses::total           69                       # number of SoftPFReq accesses(hits+misses)
system.cpu.dcache.SoftPFReq_miss_rate::.cpu.data     0.072464                       # miss rate for SoftPFReq accesses
system.cpu.dcache.SoftPFReq_miss_rate::total     0.072464                       # miss rate for SoftPFReq accesses
system.cpu.dcache.SoftPFReq_mshr_misses::.cpu.data            5                       # number of SoftPFReq MSHR misses
system.cpu.dcache.SoftPFReq_mshr_misses::total            5                       # number of SoftPFReq MSHR misses
system.cpu.dcache.SoftPFReq_mshr_miss_latency::.cpu.data       591500                       # number of SoftPFReq MSHR miss cycles
system.cpu.dcache.SoftPFReq_mshr_miss_latency::total       591500                       # number of SoftPFReq MSHR miss cycles
system.cpu.dcache.SoftPFReq_mshr_miss_rate::.cpu.data     0.072464                       # mshr miss rate for SoftPFReq accesses
system.cpu.dcache.SoftPFReq_mshr_miss_rate::total     0.072464                       # mshr miss rate for SoftPFReq accesses
system.cpu.dcache.SoftPFReq_avg_mshr_miss_latency::.cpu.data       118300                       # average SoftPFReq mshr miss latency
system.cpu.dcache.SoftPFReq_avg_mshr_miss_latency::total       118300                       # average SoftPFReq mshr miss latency
system.cpu.dcache.WriteLineReq_hits::.cpu.data           20                       # number of WriteLineReq hits
system.cpu.dcache.WriteLineReq_hits::total           20                       # number of WriteLineReq hits
system.cpu.dcache.WriteLineReq_misses::.cpu.data          101                       # number of WriteLineReq misses
system.cpu.dcache.WriteLineReq_misses::total          101                       # number of WriteLineReq misses
system.cpu.dcache.WriteLineReq_miss_latency::.cpu.data      3207451                       # number of WriteLineReq miss cycles
system.cpu.dcache.WriteLineReq_miss_latency::total      3207451                       # number of WriteLineReq miss cycles
system.cpu.dcache.WriteLineReq_accesses::.cpu.data          121                       # number of WriteLineReq accesses(hits+misses)
system.cpu.dcache.WriteLineReq_accesses::total          121                       # number of WriteLineReq accesses(hits+misses)
system.cpu.dcache.WriteLineReq_miss_rate::.cpu.data     0.834711                       # miss rate for WriteLineReq accesses
system.cpu.dcache.WriteLineReq_miss_rate::total     0.834711                       # miss rate for WriteLineReq accesses
system.cpu.dcache.WriteLineReq_avg_miss_latency::.cpu.data 31756.940594                       # average WriteLineReq miss latency
system.cpu.dcache.WriteLineReq_avg_miss_latency::total 31756.940594                       # average WriteLineReq miss latency
system.cpu.dcache.WriteLineReq_mshr_misses::.cpu.data          101                       # number of WriteLineReq MSHR misses
system.cpu.dcache.WriteLineReq_mshr_misses::total          101                       # number of WriteLineReq MSHR misses
system.cpu.dcache.WriteLineReq_mshr_miss_latency::.cpu.data      3106451                       # number of WriteLineReq MSHR miss cycles
system.cpu.dcache.WriteLineReq_mshr_miss_latency::total      3106451                       # number of WriteLineReq MSHR miss cycles
system.cpu.dcache.WriteLineReq_mshr_miss_rate::.cpu.data     0.834711                       # mshr miss rate for WriteLineReq accesses
system.cpu.dcache.WriteLineReq_mshr_miss_rate::total     0.834711                       # mshr miss rate for WriteLineReq accesses
system.cpu.dcache.WriteLineReq_avg_mshr_miss_latency::.cpu.data 30756.940594                       # average WriteLineReq mshr miss latency
system.cpu.dcache.WriteLineReq_avg_mshr_miss_latency::total 30756.940594                       # average WriteLineReq mshr miss latency
system.cpu.dcache.LoadLockedReq_hits::.cpu.data          130                       # number of LoadLockedReq hits
system.cpu.dcache.LoadLockedReq_hits::total          130                       # number of LoadLockedReq hits
system.cpu.dcache.LoadLockedReq_misses::.cpu.data            1                       # number of LoadLockedReq misses
system.cpu.dcache.LoadLockedReq_misses::total            1                       # number of LoadLockedReq misses
system.cpu.dcache.LoadLockedReq_miss_latency::.cpu.data       111500                       # number of LoadLockedReq miss cycles
system.cpu.dcache.LoadLockedReq_miss_latency::total       111500                       # number of LoadLockedReq miss cycles
system.cpu.dcache.LoadLockedReq_accesses::.cpu.data          131                       # number of LoadLockedReq accesses(hits+misses)
system.cpu.dcache.LoadLockedReq_accesses::total          131                       # number of LoadLockedReq accesses(hits+misses)
system.cpu.dcache.LoadLockedReq_miss_rate::.cpu.data     0.007634                       # miss rate for LoadLockedReq accesses
system.cpu.dcache.LoadLockedReq_miss_rate::total     0.007634                       # miss rate for LoadLockedReq accesses
system.cpu.dcache.LoadLockedReq_avg_miss_latency::.cpu.data       111500                       # average LoadLockedReq miss latency
system.cpu.dcache.LoadLockedReq_avg_miss_latency::total       111500                       # average LoadLockedReq miss latency
system.cpu.dcache.LoadLockedReq_mshr_misses::.cpu.data            1                       # number of LoadLockedReq MSHR misses
system.cpu.dcache.LoadLockedReq_mshr_misses::total            1                       # number of LoadLockedReq MSHR misses
system.cpu.dcache.LoadLockedReq_mshr_miss_latency::.cpu.data       110500                       # number of LoadLockedReq MSHR miss cycles
system.cpu.dcache.LoadLockedReq_mshr_miss_latency::total       110500                       # number of LoadLockedReq MSHR miss cycles
system.cpu.dcache.LoadLockedReq_mshr_miss_rate::.cpu.data     0.007634                       # mshr miss rate for LoadLockedReq accesses
system.cpu.dcache.LoadLockedReq_mshr_miss_rate::total     0.007634                       # mshr miss rate for LoadLockedReq accesses
system.cpu.dcache.LoadLockedReq_avg_mshr_miss_latency::.cpu.data       110500                       # average LoadLockedReq mshr miss latency
system.cpu.dcache.LoadLockedReq_avg_mshr_miss_latency::total       110500                       # average LoadLockedReq mshr miss latency
system.cpu.dcache.StoreCondReq_hits::.cpu.data          100                       # number of StoreCondReq hits
system.cpu.dcache.StoreCondReq_hits::total          100                       # number of StoreCondReq hits
system.cpu.dcache.StoreCondReq_accesses::.cpu.data          100                       # number of StoreCondReq accesses(hits+misses)
system.cpu.dcache.StoreCondReq_accesses::total          100                       # number of StoreCondReq accesses(hits+misses)
system.cpu.dcache.power_state.pwrStateResidencyTicks::UNDEFINED  26868235500                       # Cumulative time (in ticks) in various power states
system.cpu.dcache.tags.tagsinuse          1021.285809                       # Cycle average of tags in use
system.cpu.dcache.tags.total_refs             5585661                       # Total number of references to valid blocks.
system.cpu.dcache.tags.sampled_refs            790060                       # Sample count of references to valid blocks.
system.cpu.dcache.tags.avg_refs              7.069920                       # Average number of references to valid blocks.
system.cpu.dcache.tags.warmup_cycle            176500                       # Cycle when the warmup percentage was hit.
system.cpu.dcache.tags.occ_blocks::.cpu.data  1021.285809                       # Average occupied blocks per requestor
system.cpu.dcache.tags.occ_percent::.cpu.data     0.997349                       # Average percentage of cache occupancy
system.cpu.dcache.tags.occ_percent::total     0.997349                       # Average percentage of cache occupancy
system.cpu.dcache.tags.occ_task_id_blocks::1024         1024                       # Occupied blocks per task id
system.cpu.dcache.tags.age_task_id_blocks_1024::0          298                       # Occupied blocks per task id
system.cpu.dcache.tags.age_task_id_blocks_1024::1          726                       # Occupied blocks per task id
system.cpu.dcache.tags.occ_task_id_percent::1024            1                       # Percentage of cache occupancy per task id
system.cpu.dcache.tags.tag_accesses          13764282                       # Number of tag accesses
system.cpu.dcache.tags.data_accesses         13764282                       # Number of data accesses
system.cpu.dcache.tags.power_state.pwrStateResidencyTicks::UNDEFINED  26868235500                       # Cumulative time (in ticks) in various power states
system.cpu.power_state.pwrStateResidencyTicks::ON  26868235500                       # Cumulative time (in ticks) in various power states

---------- End Simulation Statistics   ----------
