
---------- Begin Simulation Statistics ----------
final_tick                                 2774430500                       # Number of ticks from beginning of simulation (restored from checkpoints and never reset)
host_inst_rate                                 106705                       # Simulator instruction rate (inst/s)
host_mem_usage                                 868360                       # Number of bytes of host memory used
host_op_rate                                   126920                       # Simulator op (including micro ops) rate (op/s)
host_seconds                                    93.72                       # Real time elapsed on the host
host_tick_rate                               29604613                       # Simulator tick rate (ticks/s)
sim_freq                                 1000000000000                       # Frequency of simulated ticks
sim_insts                                    10000000                       # Number of instructions simulated
sim_ops                                      11894415                       # Number of ops (including micro ops) simulated
sim_seconds                                  0.002774                       # Number of seconds simulated
sim_ticks                                  2774430500                       # Number of ticks simulated
system.cpu.branchPred.BTBCorrect                    0                       # Number of correct BTB predictions (this stat may not work properly.
system.cpu.branchPred.BTBHitPct             99.618008                       # BTB Hit Percentage
system.cpu.branchPred.BTBHits                  907534                       # Number of BTB hits
system.cpu.branchPred.BTBLookups               911014                       # Number of BTB lookups
system.cpu.branchPred.RASInCorrect                  0                       # Number of incorrect RAS predictions.
system.cpu.branchPred.condIncorrect             33467                       # Number of conditional branches incorrect
system.cpu.branchPred.condPredicted           1412295                       # Number of conditional branches predicted
system.cpu.branchPred.indirectHits               2247                       # Number of indirect target hits.
system.cpu.branchPred.indirectLookups            3105                       # Number of indirect predictor lookups.
system.cpu.branchPred.indirectMisses              858                       # Number of indirect misses.
system.cpu.branchPred.lookups                 1869420                       # Number of BP lookups
system.cpu.branchPred.usedRAS                  169038                       # Number of times the RAS was used to get a target.
system.cpu.branchPredindirectMispredicted          196                       # Number of mispredicted indirect branches.
system.cpu.cc_regfile_reads                   3079929                       # number of cc regfile reads
system.cpu.cc_regfile_writes                  2977181                       # number of cc regfile writes
system.cpu.commit.amos                              0                       # Number of atomic instructions committed
system.cpu.commit.branchMispredicts             32690                       # The number of times a branch was mispredicted
system.cpu.commit.branches                    1651947                       # Number of branches committed
system.cpu.commit.bw_lim_events                890726                       # number cycles where commit BW limit reached
system.cpu.commit.commitNonSpecStalls            1957                       # The number of times commit has been forced to stall to communicate backwards
system.cpu.commit.commitSquashedInsts         1004567                       # The number of squashed insts skipped by commit
system.cpu.commit.committedInsts             10016151                       # Number of instructions committed
system.cpu.commit.committedOps               11910566                       # Number of ops (including micro ops) committed
system.cpu.commit.committed_per_cycle::samples      5301313                       # Number of insts commited each cycle
system.cpu.commit.committed_per_cycle::mean     2.246720                       # Number of insts commited each cycle
system.cpu.commit.committed_per_cycle::stdev     2.962737                       # Number of insts commited each cycle
system.cpu.commit.committed_per_cycle::underflows            0      0.00%      0.00% # Number of insts commited each cycle
system.cpu.commit.committed_per_cycle::0      2411646     45.49%     45.49% # Number of insts commited each cycle
system.cpu.commit.committed_per_cycle::1       805328     15.19%     60.68% # Number of insts commited each cycle
system.cpu.commit.committed_per_cycle::2       423974      8.00%     68.68% # Number of insts commited each cycle
system.cpu.commit.committed_per_cycle::3       309190      5.83%     74.51% # Number of insts commited each cycle
system.cpu.commit.committed_per_cycle::4       250779      4.73%     79.24% # Number of insts commited each cycle
system.cpu.commit.committed_per_cycle::5        93272      1.76%     81.00% # Number of insts commited each cycle
system.cpu.commit.committed_per_cycle::6        80350      1.52%     82.52% # Number of insts commited each cycle
system.cpu.commit.committed_per_cycle::7        36048      0.68%     83.20% # Number of insts commited each cycle
system.cpu.commit.committed_per_cycle::8       890726     16.80%    100.00% # Number of insts commited each cycle
system.cpu.commit.committed_per_cycle::overflows            0      0.00%    100.00% # Number of insts commited each cycle
system.cpu.commit.committed_per_cycle::min_value            0                       # Number of insts commited each cycle
system.cpu.commit.committed_per_cycle::max_value            8                       # Number of insts commited each cycle
system.cpu.commit.committed_per_cycle::total      5301313                       # Number of insts commited each cycle
system.cpu.commit.fp_insts                          0                       # Number of committed floating point instructions.
system.cpu.commit.function_calls               146386                       # Number of function calls committed.
system.cpu.commit.int_insts                   9927237                       # Number of committed integer instructions.
system.cpu.commit.loads                       2000894                       # Number of loads committed
system.cpu.commit.membars                        1922                       # Number of memory barriers committed
system.cpu.commit.op_class_0::No_OpClass         5074      0.04%      0.04% # Class of committed instruction
system.cpu.commit.op_class_0::IntAlu          6631221     55.68%     55.72% # Class of committed instruction
system.cpu.commit.op_class_0::IntMult           53992      0.45%     56.17% # Class of committed instruction
system.cpu.commit.op_class_0::IntDiv               23      0.00%     56.17% # Class of committed instruction
system.cpu.commit.op_class_0::FloatAdd         176152      1.48%     57.65% # Class of committed instruction
system.cpu.commit.op_class_0::FloatCmp          51045      0.43%     58.08% # Class of committed instruction
system.cpu.commit.op_class_0::FloatCvt         201343      1.69%     59.77% # Class of committed instruction
system.cpu.commit.op_class_0::FloatMult        170599      1.43%     61.20% # Class of committed instruction
system.cpu.commit.op_class_0::FloatMultAcc       395486      3.32%     64.52% # Class of committed instruction
system.cpu.commit.op_class_0::FloatDiv          60019      0.50%     65.03% # Class of committed instruction
system.cpu.commit.op_class_0::FloatMisc        247994      2.08%     67.11% # Class of committed instruction
system.cpu.commit.op_class_0::FloatSqrt             0      0.00%     67.11% # Class of committed instruction
system.cpu.commit.op_class_0::SimdAdd            9096      0.08%     67.18% # Class of committed instruction
system.cpu.commit.op_class_0::SimdAddAcc            0      0.00%     67.18% # Class of committed instruction
system.cpu.commit.op_class_0::SimdAlu           11637      0.10%     67.28% # Class of committed instruction
system.cpu.commit.op_class_0::SimdCmp           11420      0.10%     67.38% # Class of committed instruction
system.cpu.commit.op_class_0::SimdCvt             634      0.01%     67.38% # Class of committed instruction
system.cpu.commit.op_class_0::SimdMisc          27829      0.23%     67.62% # Class of committed instruction
system.cpu.commit.op_class_0::SimdMult              0      0.00%     67.62% # Class of committed instruction
system.cpu.commit.op_class_0::SimdMultAcc            0      0.00%     67.62% # Class of committed instruction
system.cpu.commit.op_class_0::SimdShift             0      0.00%     67.62% # Class of committed instruction
system.cpu.commit.op_class_0::SimdShiftAcc            0      0.00%     67.62% # Class of committed instruction
system.cpu.commit.op_class_0::SimdDiv               0      0.00%     67.62% # Class of committed instruction
system.cpu.commit.op_class_0::SimdSqrt              0      0.00%     67.62% # Class of committed instruction
system.cpu.commit.op_class_0::SimdFloatAdd            0      0.00%     67.62% # Class of committed instruction
system.cpu.commit.op_class_0::SimdFloatAlu            0      0.00%     67.62% # Class of committed instruction
system.cpu.commit.op_class_0::SimdFloatCmp            0      0.00%     67.62% # Class of committed instruction
system.cpu.commit.op_class_0::SimdFloatCvt            0      0.00%     67.62% # Class of committed instruction
system.cpu.commit.op_class_0::SimdFloatDiv            0      0.00%     67.62% # Class of committed instruction
system.cpu.commit.op_class_0::SimdFloatMisc            0      0.00%     67.62% # Class of committed instruction
system.cpu.commit.op_class_0::SimdFloatMult            0      0.00%     67.62% # Class of committed instruction
system.cpu.commit.op_class_0::SimdFloatMultAcc            0      0.00%     67.62% # Class of committed instruction
system.cpu.commit.op_class_0::SimdFloatSqrt            0      0.00%     67.62% # Class of committed instruction
system.cpu.commit.op_class_0::SimdReduceAdd            0      0.00%     67.62% # Class of committed instruction
system.cpu.commit.op_class_0::SimdReduceAlu            0      0.00%     67.62% # Class of committed instruction
system.cpu.commit.op_class_0::SimdReduceCmp            0      0.00%     67.62% # Class of committed instruction
system.cpu.commit.op_class_0::SimdFloatReduceAdd            0      0.00%     67.62% # Class of committed instruction
system.cpu.commit.op_class_0::SimdFloatReduceCmp            0      0.00%     67.62% # Class of committed instruction
system.cpu.commit.op_class_0::SimdAes               0      0.00%     67.62% # Class of committed instruction
system.cpu.commit.op_class_0::SimdAesMix            0      0.00%     67.62% # Class of committed instruction
system.cpu.commit.op_class_0::SimdSha1Hash            0      0.00%     67.62% # Class of committed instruction
system.cpu.commit.op_class_0::SimdSha1Hash2            0      0.00%     67.62% # Class of committed instruction
system.cpu.commit.op_class_0::SimdSha256Hash            0      0.00%     67.62% # Class of committed instruction
system.cpu.commit.op_class_0::SimdSha256Hash2            0      0.00%     67.62% # Class of committed instruction
system.cpu.commit.op_class_0::SimdShaSigma2            0      0.00%     67.62% # Class of committed instruction
system.cpu.commit.op_class_0::SimdShaSigma3            0      0.00%     67.62% # Class of committed instruction
system.cpu.commit.op_class_0::SimdPredAlu            0      0.00%     67.62% # Class of committed instruction
system.cpu.commit.op_class_0::MemRead         2000894     16.80%     84.42% # Class of committed instruction
system.cpu.commit.op_class_0::MemWrite        1856108     15.58%    100.00% # Class of committed instruction
system.cpu.commit.op_class_0::FloatMemRead            0      0.00%    100.00% # Class of committed instruction
system.cpu.commit.op_class_0::FloatMemWrite            0      0.00%    100.00% # Class of committed instruction
system.cpu.commit.op_class_0::IprAccess             0      0.00%    100.00% # Class of committed instruction
system.cpu.commit.op_class_0::InstPrefetch            0      0.00%    100.00% # Class of committed instruction
system.cpu.commit.op_class_0::total          11910566                       # Class of committed instruction
system.cpu.commit.refs                        3857002                       # Number of memory references committed
system.cpu.commit.swp_count                         0                       # Number of s/w prefetches committed
system.cpu.commit.vec_insts                   1926437                       # Number of committed Vector instructions.
system.cpu.committedInsts                    10000000                       # Number of Instructions Simulated
system.cpu.committedOps                      11894415                       # Number of Ops (including micro ops) Simulated
system.cpu.cpi                               0.554886                       # CPI: Cycles Per Instruction
system.cpu.cpi_total                         0.554886                       # CPI: Total CPI of All Threads
system.cpu.decode.BlockedCycles               1805891                       # Number of cycles decode is blocked
system.cpu.decode.BranchMispred                   793                       # Number of times decode detected a branch misprediction
system.cpu.decode.BranchResolved               882908                       # Number of times decode resolved a branch
system.cpu.decode.DecodedInsts               13149371                       # Number of instructions handled by decode
system.cpu.decode.IdleCycles                  1360320                       # Number of cycles decode is idle
system.cpu.decode.RunCycles                   1988796                       # Number of cycles decode is running
system.cpu.decode.SquashCycles                  32936                       # Number of cycles decode is squashing
system.cpu.decode.SquashedInsts                  3063                       # Number of squashed instructions handled by decode
system.cpu.decode.UnblockCycles                256270                       # Number of cycles decode is unblocking
system.cpu.dtb.accesses                             0                       # DTB accesses
system.cpu.dtb.align_faults                         0                       # Number of TLB faults due to alignment restrictions
system.cpu.dtb.domain_faults                        0                       # Number of TLB faults due to domain restrictions
system.cpu.dtb.flush_entries                        0                       # Number of entries that have been flushed from TLB
system.cpu.dtb.flush_tlb                            0                       # Number of times complete TLB was flushed
system.cpu.dtb.flush_tlb_asid                       0                       # Number of times TLB was flushed by ASID
system.cpu.dtb.flush_tlb_mva                        0                       # Number of times TLB was flushed by MVA
system.cpu.dtb.flush_tlb_mva_asid                   0                       # Number of times TLB was flushed by MVA & ASID
system.cpu.dtb.hits                                 0                       # DTB hits
system.cpu.dtb.inst_accesses                        0                       # ITB inst accesses
system.cpu.dtb.inst_hits                            0                       # ITB inst hits
system.cpu.dtb.inst_misses                          0                       # ITB inst misses
system.cpu.dtb.misses                               0                       # DTB misses
system.cpu.dtb.perms_faults                         0                       # Number of TLB faults due to permissions restrictions
system.cpu.dtb.prefetch_faults                      0                       # Number of TLB faults due to prefetch
system.cpu.dtb.read_accesses                        0                       # DTB read accesses
system.cpu.dtb.read_hits                            0                       # DTB read hits
system.cpu.dtb.read_misses                          0                       # DTB read misses
system.cpu.dtb.stage2_mmu.stage2_tlb.accesses            0                       # DTB accesses
system.cpu.dtb.stage2_mmu.stage2_tlb.align_faults            0                       # Number of TLB faults due to alignment restrictions
system.cpu.dtb.stage2_mmu.stage2_tlb.domain_faults            0                       # Number of TLB faults due to domain restrictions
system.cpu.dtb.stage2_mmu.stage2_tlb.flush_entries            0                       # Number of entries that have been flushed from TLB
system.cpu.dtb.stage2_mmu.stage2_tlb.flush_tlb            0                       # Number of times complete TLB was flushed
system.cpu.dtb.stage2_mmu.stage2_tlb.flush_tlb_asid            0                       # Number of times TLB was flushed by ASID
system.cpu.dtb.stage2_mmu.stage2_tlb.flush_tlb_mva            0                       # Number of times TLB was flushed by MVA
system.cpu.dtb.stage2_mmu.stage2_tlb.flush_tlb_mva_asid            0                       # Number of times TLB was flushed by MVA & ASID
system.cpu.dtb.stage2_mmu.stage2_tlb.hits            0                       # DTB hits
system.cpu.dtb.stage2_mmu.stage2_tlb.inst_accesses            0                       # ITB inst accesses
system.cpu.dtb.stage2_mmu.stage2_tlb.inst_hits            0                       # ITB inst hits
system.cpu.dtb.stage2_mmu.stage2_tlb.inst_misses            0                       # ITB inst misses
system.cpu.dtb.stage2_mmu.stage2_tlb.misses            0                       # DTB misses
system.cpu.dtb.stage2_mmu.stage2_tlb.perms_faults            0                       # Number of TLB faults due to permissions restrictions
system.cpu.dtb.stage2_mmu.stage2_tlb.prefetch_faults            0                       # Number of TLB faults due to prefetch
system.cpu.dtb.stage2_mmu.stage2_tlb.read_accesses            0                       # DTB read accesses
system.cpu.dtb.stage2_mmu.stage2_tlb.read_hits            0                       # DTB read hits
system.cpu.dtb.stage2_mmu.stage2_tlb.read_misses            0                       # DTB read misses
system.cpu.dtb.stage2_mmu.stage2_tlb.walker.walkRequestOrigin_Requested::Data            0                       # Table walker requests started/completed, data/inst
system.cpu.dtb.stage2_mmu.stage2_tlb.walker.walkRequestOrigin_Requested::Inst            0                       # Table walker requests started/completed, data/inst
system.cpu.dtb.stage2_mmu.stage2_tlb.walker.walkRequestOrigin_Requested::total            0                       # Table walker requests started/completed, data/inst
system.cpu.dtb.stage2_mmu.stage2_tlb.walker.walkRequestOrigin_Completed::Data            0                       # Table walker requests started/completed, data/inst
system.cpu.dtb.stage2_mmu.stage2_tlb.walker.walkRequestOrigin_Completed::Inst            0                       # Table walker requests started/completed, data/inst
system.cpu.dtb.stage2_mmu.stage2_tlb.walker.walkRequestOrigin_Completed::total            0                       # Table walker requests started/completed, data/inst
system.cpu.dtb.stage2_mmu.stage2_tlb.walker.walkRequestOrigin::total            0                       # Table walker requests started/completed, data/inst
system.cpu.dtb.stage2_mmu.stage2_tlb.walker.walks            0                       # Table walker walks requested
system.cpu.dtb.stage2_mmu.stage2_tlb.write_accesses            0                       # DTB write accesses
system.cpu.dtb.stage2_mmu.stage2_tlb.write_hits            0                       # DTB write hits
system.cpu.dtb.stage2_mmu.stage2_tlb.write_misses            0                       # DTB write misses
system.cpu.dtb.walker.walkRequestOrigin_Requested::Data            0                       # Table walker requests started/completed, data/inst
system.cpu.dtb.walker.walkRequestOrigin_Requested::Inst            0                       # Table walker requests started/completed, data/inst
system.cpu.dtb.walker.walkRequestOrigin_Requested::total            0                       # Table walker requests started/completed, data/inst
system.cpu.dtb.walker.walkRequestOrigin_Completed::Data            0                       # Table walker requests started/completed, data/inst
system.cpu.dtb.walker.walkRequestOrigin_Completed::Inst            0                       # Table walker requests started/completed, data/inst
system.cpu.dtb.walker.walkRequestOrigin_Completed::total            0                       # Table walker requests started/completed, data/inst
system.cpu.dtb.walker.walkRequestOrigin::total            0                       # Table walker requests started/completed, data/inst
system.cpu.dtb.walker.walks                         0                       # Table walker walks requested
system.cpu.dtb.write_accesses                       0                       # DTB write accesses
system.cpu.dtb.write_hits                           0                       # DTB write hits
system.cpu.dtb.write_misses                         0                       # DTB write misses
system.cpu.fetch.Branches                     1869420                       # Number of branches that fetch encountered
system.cpu.fetch.CacheLines                   1513121                       # Number of cache lines fetched
system.cpu.fetch.Cycles                       3565680                       # Number of cycles fetch has run and was not squashing or blocked
system.cpu.fetch.IcacheSquashes                 18371                       # Number of outstanding Icache misses that were squashed
system.cpu.fetch.IcacheWaitRetryStallCycles           64                       # Number of stall cycles due to full MSHR
system.cpu.fetch.Insts                       11188074                       # Number of instructions fetch has processed
system.cpu.fetch.MiscStallCycles                    5                       # Number of cycles fetch has spent waiting on interrupts, or bad addresses, or out of MSHRs
system.cpu.fetch.SquashCycles                   67426                       # Number of cycles fetch has spent squashing
system.cpu.fetch.branchRate                  0.336901                       # Number of branch fetches per cycle
system.cpu.fetch.icacheStallCycles            1844751                       # Number of cycles fetch is stalled on an Icache miss
system.cpu.fetch.predictedBranches            1078819                       # Number of branches that fetch has predicted taken
system.cpu.fetch.rate                        2.016282                       # Number of inst fetches per cycle
system.cpu.fetch.rateDist::samples            5444213                       # Number of instructions fetched each cycle (Total)
system.cpu.fetch.rateDist::mean              2.456462                       # Number of instructions fetched each cycle (Total)
system.cpu.fetch.rateDist::stdev             3.177614                       # Number of instructions fetched each cycle (Total)
system.cpu.fetch.rateDist::underflows               0      0.00%      0.00% # Number of instructions fetched each cycle (Total)
system.cpu.fetch.rateDist::0                  2873198     52.78%     52.78% # Number of instructions fetched each cycle (Total)
system.cpu.fetch.rateDist::1                   314516      5.78%     58.55% # Number of instructions fetched each cycle (Total)
system.cpu.fetch.rateDist::2                   278205      5.11%     63.66% # Number of instructions fetched each cycle (Total)
system.cpu.fetch.rateDist::3                   265534      4.88%     68.54% # Number of instructions fetched each cycle (Total)
system.cpu.fetch.rateDist::4                   224687      4.13%     72.67% # Number of instructions fetched each cycle (Total)
system.cpu.fetch.rateDist::5                   219275      4.03%     76.69% # Number of instructions fetched each cycle (Total)
system.cpu.fetch.rateDist::6                   159434      2.93%     79.62% # Number of instructions fetched each cycle (Total)
system.cpu.fetch.rateDist::7                   120663      2.22%     81.84% # Number of instructions fetched each cycle (Total)
system.cpu.fetch.rateDist::8                   988701     18.16%    100.00% # Number of instructions fetched each cycle (Total)
system.cpu.fetch.rateDist::overflows                0      0.00%    100.00% # Number of instructions fetched each cycle (Total)
system.cpu.fetch.rateDist::min_value                0                       # Number of instructions fetched each cycle (Total)
system.cpu.fetch.rateDist::max_value                8                       # Number of instructions fetched each cycle (Total)
system.cpu.fetch.rateDist::total              5444213                       # Number of instructions fetched each cycle (Total)
system.cpu.icache.prefetcher.num_hwpf_issued        39901                       # number of hwpf issued
system.cpu.icache.prefetcher.pfBufferHit          209                       # number of redundant prefetches already in prefetch queue
system.cpu.icache.prefetcher.pfIdentified        40939                       # number of prefetch candidates identified
system.cpu.icache.prefetcher.pfInCache              0                       # number of redundant prefetches already in cache/mshr dropped
system.cpu.icache.prefetcher.pfRemovedFull            0                       # number of prefetches dropped due to prefetch queue size
system.cpu.icache.prefetcher.pfSpanPage         27743                       # number of prefetches that crossed the page
system.cpu.idleCycles                          104650                       # Total number of cycles that the CPU has spent unscheduled due to idling
system.cpu.iew.branchMispredicts                38397                       # Number of branch mispredicts detected at execute
system.cpu.iew.exec_branches                  1743233                       # Number of branches executed
system.cpu.iew.exec_nop                         18851                       # number of nop insts executed
system.cpu.iew.exec_rate                     2.268124                       # Inst execution rate
system.cpu.iew.exec_refs                      4102634                       # number of memory reference insts executed
system.cpu.iew.exec_stores                    1950653                       # Number of stores executed
system.cpu.iew.exec_swp                             0                       # number of swp insts executed
system.cpu.iew.iewBlockCycles                  119107                       # Number of cycles IEW is blocking
system.cpu.iew.iewDispLoadInsts               2158117                       # Number of dispatched load instructions
system.cpu.iew.iewDispNonSpecInsts               2017                       # Number of dispatched non-speculative instructions
system.cpu.iew.iewDispSquashedInsts              9288                       # Number of squashed instructions skipped by dispatch
system.cpu.iew.iewDispStoreInsts              2048696                       # Number of dispatched store instructions
system.cpu.iew.iewDispatchedInsts            12915506                       # Number of instructions dispatched to IQ
system.cpu.iew.iewExecLoadInsts               2151981                       # Number of load instructions executed
system.cpu.iew.iewExecSquashedInsts             96162                       # Number of squashed instructions skipped in execute
system.cpu.iew.iewExecutedInsts              12585508                       # Number of executed instructions
system.cpu.iew.iewIQFullEvents                    587                       # Number of times the IQ has become full, causing a stall
system.cpu.iew.iewIdleCycles                        0                       # Number of cycles IEW is idle
system.cpu.iew.iewLSQFullEvents                 31154                       # Number of times the LSQ has become full, causing a stall
system.cpu.iew.iewSquashCycles                  32936                       # Number of cycles IEW is squashing
system.cpu.iew.iewUnblockCycles                 32052                       # Number of cycles IEW is unblocking
system.cpu.iew.lsq.thread0.blockedLoads             0                       # Number of blocked loads due to partial load-store forwarding
system.cpu.iew.lsq.thread0.cacheBlocked           668                       # Number of times an access to memory failed due to the cache being blocked
system.cpu.iew.lsq.thread0.forwLoads            28632                       # Number of loads that had data forwarded from stores
system.cpu.iew.lsq.thread0.ignoredResponses            6                       # Number of memory responses ignored because the instruction is squashed
system.cpu.iew.lsq.thread0.invAddrLoads             0                       # Number of loads ignored due to an invalid address
system.cpu.iew.lsq.thread0.invAddrSwpfs             0                       # Number of software prefetches ignored due to an invalid address
system.cpu.iew.lsq.thread0.memOrderViolation          139                       # Number of memory ordering violations
system.cpu.iew.lsq.thread0.rescheduledLoads        26175                       # Number of loads that were rescheduled
system.cpu.iew.lsq.thread0.squashedLoads       157201                       # Number of loads squashed
system.cpu.iew.lsq.thread0.squashedStores       192575                       # Number of stores squashed
system.cpu.iew.memOrderViolationEvents            139                       # Number of memory order violations
system.cpu.iew.predictedNotTakenIncorrect        19905                       # Number of branches that were predicted not taken incorrectly
system.cpu.iew.predictedTakenIncorrect          18492                       # Number of branches that were predicted taken incorrectly
system.cpu.iew.wb_consumers                  12453382                       # num instructions consuming a value
system.cpu.iew.wb_count                      12517750                       # cumulative count of insts written-back
system.cpu.iew.wb_fanout                     0.584644                       # average fanout of values written-back
system.cpu.iew.wb_producers                   7280793                       # num instructions producing a value
system.cpu.iew.wb_rate                       2.255913                       # insts written-back per cycle
system.cpu.iew.wb_sent                       12533998                       # cumulative count of insts sent to commit
system.cpu.int_regfile_reads                 14346826                       # number of integer regfile reads
system.cpu.int_regfile_writes                 7272063                       # number of integer regfile writes
system.cpu.ipc                               1.802171                       # IPC: Instructions Per Cycle
system.cpu.ipc_total                         1.802171                       # IPC: Total IPC of All Threads
system.cpu.iq.FU_type_0::No_OpClass              5392      0.04%      0.04% # Type of FU issued
system.cpu.iq.FU_type_0::IntAlu               7078479     55.82%     55.86% # Type of FU issued
system.cpu.iq.FU_type_0::IntMult                57711      0.46%     56.31% # Type of FU issued
system.cpu.iq.FU_type_0::IntDiv                    29      0.00%     56.31% # Type of FU issued
system.cpu.iq.FU_type_0::FloatAdd              179680      1.42%     57.73% # Type of FU issued
system.cpu.iq.FU_type_0::FloatCmp               53061      0.42%     58.15% # Type of FU issued
system.cpu.iq.FU_type_0::FloatCvt              206883      1.63%     59.78% # Type of FU issued
system.cpu.iq.FU_type_0::FloatMult             171061      1.35%     61.13% # Type of FU issued
system.cpu.iq.FU_type_0::FloatMultAcc          395921      3.12%     64.25% # Type of FU issued
system.cpu.iq.FU_type_0::FloatDiv               61112      0.48%     64.73% # Type of FU issued
system.cpu.iq.FU_type_0::FloatMisc             256423      2.02%     66.76% # Type of FU issued
system.cpu.iq.FU_type_0::FloatSqrt                  0      0.00%     66.76% # Type of FU issued
system.cpu.iq.FU_type_0::SimdAdd                10129      0.08%     66.84% # Type of FU issued
system.cpu.iq.FU_type_0::SimdAddAcc                 0      0.00%     66.84% # Type of FU issued
system.cpu.iq.FU_type_0::SimdAlu                13316      0.11%     66.94% # Type of FU issued
system.cpu.iq.FU_type_0::SimdCmp                12276      0.10%     67.04% # Type of FU issued
system.cpu.iq.FU_type_0::SimdCvt                  723      0.01%     67.04% # Type of FU issued
system.cpu.iq.FU_type_0::SimdMisc               30334      0.24%     67.28% # Type of FU issued
system.cpu.iq.FU_type_0::SimdMult                   0      0.00%     67.28% # Type of FU issued
system.cpu.iq.FU_type_0::SimdMultAcc                0      0.00%     67.28% # Type of FU issued
system.cpu.iq.FU_type_0::SimdShift                  0      0.00%     67.28% # Type of FU issued
system.cpu.iq.FU_type_0::SimdShiftAcc               0      0.00%     67.28% # Type of FU issued
system.cpu.iq.FU_type_0::SimdDiv                    0      0.00%     67.28% # Type of FU issued
system.cpu.iq.FU_type_0::SimdSqrt                   0      0.00%     67.28% # Type of FU issued
system.cpu.iq.FU_type_0::SimdFloatAdd               0      0.00%     67.28% # Type of FU issued
system.cpu.iq.FU_type_0::SimdFloatAlu               0      0.00%     67.28% # Type of FU issued
system.cpu.iq.FU_type_0::SimdFloatCmp               0      0.00%     67.28% # Type of FU issued
system.cpu.iq.FU_type_0::SimdFloatCvt               0      0.00%     67.28% # Type of FU issued
system.cpu.iq.FU_type_0::SimdFloatDiv               0      0.00%     67.28% # Type of FU issued
system.cpu.iq.FU_type_0::SimdFloatMisc              0      0.00%     67.28% # Type of FU issued
system.cpu.iq.FU_type_0::SimdFloatMult              0      0.00%     67.28% # Type of FU issued
system.cpu.iq.FU_type_0::SimdFloatMultAcc            0      0.00%     67.28% # Type of FU issued
system.cpu.iq.FU_type_0::SimdFloatSqrt              0      0.00%     67.28% # Type of FU issued
system.cpu.iq.FU_type_0::SimdReduceAdd              0      0.00%     67.28% # Type of FU issued
system.cpu.iq.FU_type_0::SimdReduceAlu              0      0.00%     67.28% # Type of FU issued
system.cpu.iq.FU_type_0::SimdReduceCmp              0      0.00%     67.28% # Type of FU issued
system.cpu.iq.FU_type_0::SimdFloatReduceAdd            0      0.00%     67.28% # Type of FU issued
system.cpu.iq.FU_type_0::SimdFloatReduceCmp            0      0.00%     67.28% # Type of FU issued
system.cpu.iq.FU_type_0::SimdAes                    0      0.00%     67.28% # Type of FU issued
system.cpu.iq.FU_type_0::SimdAesMix                 0      0.00%     67.28% # Type of FU issued
system.cpu.iq.FU_type_0::SimdSha1Hash               0      0.00%     67.28% # Type of FU issued
system.cpu.iq.FU_type_0::SimdSha1Hash2              0      0.00%     67.28% # Type of FU issued
system.cpu.iq.FU_type_0::SimdSha256Hash             0      0.00%     67.28% # Type of FU issued
system.cpu.iq.FU_type_0::SimdSha256Hash2            0      0.00%     67.28% # Type of FU issued
system.cpu.iq.FU_type_0::SimdShaSigma2              0      0.00%     67.28% # Type of FU issued
system.cpu.iq.FU_type_0::SimdShaSigma3              0      0.00%     67.28% # Type of FU issued
system.cpu.iq.FU_type_0::SimdPredAlu                0      0.00%     67.28% # Type of FU issued
system.cpu.iq.FU_type_0::MemRead              2169664     17.11%     84.39% # Type of FU issued
system.cpu.iq.FU_type_0::MemWrite             1979481     15.61%    100.00% # Type of FU issued
system.cpu.iq.FU_type_0::FloatMemRead               0      0.00%    100.00% # Type of FU issued
system.cpu.iq.FU_type_0::FloatMemWrite              0      0.00%    100.00% # Type of FU issued
system.cpu.iq.FU_type_0::IprAccess                  0      0.00%    100.00% # Type of FU issued
system.cpu.iq.FU_type_0::InstPrefetch               0      0.00%    100.00% # Type of FU issued
system.cpu.iq.FU_type_0::total               12681675                       # Type of FU issued
system.cpu.iq.fp_alu_accesses                       0                       # Number of floating point alu accesses
system.cpu.iq.fp_inst_queue_reads                   0                       # Number of floating instruction queue reads
system.cpu.iq.fp_inst_queue_wakeup_accesses            0                       # Number of floating instruction queue wakeup accesses
system.cpu.iq.fp_inst_queue_writes                  0                       # Number of floating instruction queue writes
system.cpu.iq.fu_busy_cnt                      492414                       # FU busy when requested
system.cpu.iq.fu_busy_rate                   0.038829                       # FU busy rate (busy events/executed inst)
system.cpu.iq.fu_full::No_OpClass                   0      0.00%      0.00% # attempts to use FU when none available
system.cpu.iq.fu_full::IntAlu                   49571     10.07%     10.07% # attempts to use FU when none available
system.cpu.iq.fu_full::IntMult                     10      0.00%     10.07% # attempts to use FU when none available
system.cpu.iq.fu_full::IntDiv                       0      0.00%     10.07% # attempts to use FU when none available
system.cpu.iq.fu_full::FloatAdd                   449      0.09%     10.16% # attempts to use FU when none available
system.cpu.iq.fu_full::FloatCmp                   582      0.12%     10.28% # attempts to use FU when none available
system.cpu.iq.fu_full::FloatCvt                     0      0.00%     10.28% # attempts to use FU when none available
system.cpu.iq.fu_full::FloatMult                50105     10.18%     20.45% # attempts to use FU when none available
system.cpu.iq.fu_full::FloatMultAcc             67051     13.62%     34.07% # attempts to use FU when none available
system.cpu.iq.fu_full::FloatDiv                  2502      0.51%     34.58% # attempts to use FU when none available
system.cpu.iq.fu_full::FloatMisc                48560      9.86%     44.44% # attempts to use FU when none available
system.cpu.iq.fu_full::FloatSqrt                    0      0.00%     44.44% # attempts to use FU when none available
system.cpu.iq.fu_full::SimdAdd                      0      0.00%     44.44% # attempts to use FU when none available
system.cpu.iq.fu_full::SimdAddAcc                   0      0.00%     44.44% # attempts to use FU when none available
system.cpu.iq.fu_full::SimdAlu                    553      0.11%     44.55% # attempts to use FU when none available
system.cpu.iq.fu_full::SimdCmp                    513      0.10%     44.66% # attempts to use FU when none available
system.cpu.iq.fu_full::SimdCvt                      0      0.00%     44.66% # attempts to use FU when none available
system.cpu.iq.fu_full::SimdMisc                     0      0.00%     44.66% # attempts to use FU when none available
system.cpu.iq.fu_full::SimdMult                     0      0.00%     44.66% # attempts to use FU when none available
system.cpu.iq.fu_full::SimdMultAcc                  0      0.00%     44.66% # attempts to use FU when none available
system.cpu.iq.fu_full::SimdShift                    0      0.00%     44.66% # attempts to use FU when none available
system.cpu.iq.fu_full::SimdShiftAcc                 0      0.00%     44.66% # attempts to use FU when none available
system.cpu.iq.fu_full::SimdDiv                      0      0.00%     44.66% # attempts to use FU when none available
system.cpu.iq.fu_full::SimdSqrt                     0      0.00%     44.66% # attempts to use FU when none available
system.cpu.iq.fu_full::SimdFloatAdd                 0      0.00%     44.66% # attempts to use FU when none available
system.cpu.iq.fu_full::SimdFloatAlu                 0      0.00%     44.66% # attempts to use FU when none available
system.cpu.iq.fu_full::SimdFloatCmp                 0      0.00%     44.66% # attempts to use FU when none available
system.cpu.iq.fu_full::SimdFloatCvt                 0      0.00%     44.66% # attempts to use FU when none available
system.cpu.iq.fu_full::SimdFloatDiv                 0      0.00%     44.66% # attempts to use FU when none available
system.cpu.iq.fu_full::SimdFloatMisc                0      0.00%     44.66% # attempts to use FU when none available
system.cpu.iq.fu_full::SimdFloatMult                0      0.00%     44.66% # attempts to use FU when none available
system.cpu.iq.fu_full::SimdFloatMultAcc             0      0.00%     44.66% # attempts to use FU when none available
system.cpu.iq.fu_full::SimdFloatSqrt                0      0.00%     44.66% # attempts to use FU when none available
system.cpu.iq.fu_full::SimdReduceAdd                0      0.00%     44.66% # attempts to use FU when none available
system.cpu.iq.fu_full::SimdReduceAlu                0      0.00%     44.66% # attempts to use FU when none available
system.cpu.iq.fu_full::SimdReduceCmp                0      0.00%     44.66% # attempts to use FU when none available
system.cpu.iq.fu_full::SimdFloatReduceAdd            0      0.00%     44.66% # attempts to use FU when none available
system.cpu.iq.fu_full::SimdFloatReduceCmp            0      0.00%     44.66% # attempts to use FU when none available
system.cpu.iq.fu_full::SimdAes                      0      0.00%     44.66% # attempts to use FU when none available
system.cpu.iq.fu_full::SimdAesMix                   0      0.00%     44.66% # attempts to use FU when none available
system.cpu.iq.fu_full::SimdSha1Hash                 0      0.00%     44.66% # attempts to use FU when none available
system.cpu.iq.fu_full::SimdSha1Hash2                0      0.00%     44.66% # attempts to use FU when none available
system.cpu.iq.fu_full::SimdSha256Hash               0      0.00%     44.66% # attempts to use FU when none available
system.cpu.iq.fu_full::SimdSha256Hash2              0      0.00%     44.66% # attempts to use FU when none available
system.cpu.iq.fu_full::SimdShaSigma2                0      0.00%     44.66% # attempts to use FU when none available
system.cpu.iq.fu_full::SimdShaSigma3                0      0.00%     44.66% # attempts to use FU when none available
system.cpu.iq.fu_full::SimdPredAlu                  0      0.00%     44.66% # attempts to use FU when none available
system.cpu.iq.fu_full::MemRead                  64816     13.16%     57.82% # attempts to use FU when none available
system.cpu.iq.fu_full::MemWrite                207702     42.18%    100.00% # attempts to use FU when none available
system.cpu.iq.fu_full::FloatMemRead                 0      0.00%    100.00% # attempts to use FU when none available
system.cpu.iq.fu_full::FloatMemWrite                0      0.00%    100.00% # attempts to use FU when none available
system.cpu.iq.fu_full::IprAccess                    0      0.00%    100.00% # attempts to use FU when none available
system.cpu.iq.fu_full::InstPrefetch                 0      0.00%    100.00% # attempts to use FU when none available
system.cpu.iq.int_alu_accesses               11016781                       # Number of integer alu accesses
system.cpu.iq.int_inst_queue_reads           27180748                       # Number of integer instruction queue reads
system.cpu.iq.int_inst_queue_wakeup_accesses     10544868                       # Number of integer instruction queue wakeup accesses
system.cpu.iq.int_inst_queue_writes          11747978                       # Number of integer instruction queue writes
system.cpu.iq.iqInstsAdded                   12894638                       # Number of instructions added to the IQ (excludes non-spec)
system.cpu.iq.iqInstsIssued                  12681675                       # Number of instructions issued
system.cpu.iq.iqNonSpecInstsAdded                2017                       # Number of non-speculative instructions added to the IQ
system.cpu.iq.iqSquashedInstsExamined         1002167                       # Number of squashed instructions iterated over during squash; mainly for profiling
system.cpu.iq.iqSquashedInstsIssued             20520                       # Number of squashed instructions issued
system.cpu.iq.iqSquashedNonSpecRemoved             60                       # Number of squashed non-spec instructions that were removed
system.cpu.iq.iqSquashedOperandsExamined       791094                       # Number of squashed operands that are examined and possibly removed from graph
system.cpu.iq.issued_per_cycle::samples       5444213                       # Number of insts issued each cycle
system.cpu.iq.issued_per_cycle::mean         2.329386                       # Number of insts issued each cycle
system.cpu.iq.issued_per_cycle::stdev        2.389948                       # Number of insts issued each cycle
system.cpu.iq.issued_per_cycle::underflows            0      0.00%      0.00% # Number of insts issued each cycle
system.cpu.iq.issued_per_cycle::0             1808597     33.22%     33.22% # Number of insts issued each cycle
system.cpu.iq.issued_per_cycle::1              822088     15.10%     48.32% # Number of insts issued each cycle
system.cpu.iq.issued_per_cycle::2              567010     10.41%     58.74% # Number of insts issued each cycle
system.cpu.iq.issued_per_cycle::3              698938     12.84%     71.57% # Number of insts issued each cycle
system.cpu.iq.issued_per_cycle::4              488014      8.96%     80.54% # Number of insts issued each cycle
system.cpu.iq.issued_per_cycle::5              345031      6.34%     86.88% # Number of insts issued each cycle
system.cpu.iq.issued_per_cycle::6              281651      5.17%     92.05% # Number of insts issued each cycle
system.cpu.iq.issued_per_cycle::7              201436      3.70%     95.75% # Number of insts issued each cycle
system.cpu.iq.issued_per_cycle::8              231448      4.25%    100.00% # Number of insts issued each cycle
system.cpu.iq.issued_per_cycle::overflows            0      0.00%    100.00% # Number of insts issued each cycle
system.cpu.iq.issued_per_cycle::min_value            0                       # Number of insts issued each cycle
system.cpu.iq.issued_per_cycle::max_value            8                       # Number of insts issued each cycle
system.cpu.iq.issued_per_cycle::total         5444213                       # Number of insts issued each cycle
system.cpu.iq.rate                           2.285455                       # Inst issue rate
system.cpu.iq.vec_alu_accesses                2151916                       # Number of vector alu accesses
system.cpu.iq.vec_inst_queue_reads            4139744                       # Number of vector instruction queue reads
system.cpu.iq.vec_inst_queue_wakeup_accesses      1972882                       # Number of vector instruction queue wakeup accesses
system.cpu.iq.vec_inst_queue_writes           2150981                       # Number of vector instruction queue writes
system.cpu.itb.accesses                             0                       # DTB accesses
system.cpu.itb.align_faults                         0                       # Number of TLB faults due to alignment restrictions
system.cpu.itb.domain_faults                        0                       # Number of TLB faults due to domain restrictions
system.cpu.itb.flush_entries                        0                       # Number of entries that have been flushed from TLB
system.cpu.itb.flush_tlb                            0                       # Number of times complete TLB was flushed
system.cpu.itb.flush_tlb_asid                       0                       # Number of times TLB was flushed by ASID
system.cpu.itb.flush_tlb_mva                        0                       # Number of times TLB was flushed by MVA
system.cpu.itb.flush_tlb_mva_asid                   0                       # Number of times TLB was flushed by MVA & ASID
system.cpu.itb.hits                                 0                       # DTB hits
system.cpu.itb.inst_accesses                        0                       # ITB inst accesses
system.cpu.itb.inst_hits                            0                       # ITB inst hits
system.cpu.itb.inst_misses                          0                       # ITB inst misses
system.cpu.itb.misses                               0                       # DTB misses
system.cpu.itb.perms_faults                         0                       # Number of TLB faults due to permissions restrictions
system.cpu.itb.prefetch_faults                      0                       # Number of TLB faults due to prefetch
system.cpu.itb.read_accesses                        0                       # DTB read accesses
system.cpu.itb.read_hits                            0                       # DTB read hits
system.cpu.itb.read_misses                          0                       # DTB read misses
system.cpu.itb.stage2_mmu.stage2_tlb.accesses            0                       # DTB accesses
system.cpu.itb.stage2_mmu.stage2_tlb.align_faults            0                       # Number of TLB faults due to alignment restrictions
system.cpu.itb.stage2_mmu.stage2_tlb.domain_faults            0                       # Number of TLB faults due to domain restrictions
system.cpu.itb.stage2_mmu.stage2_tlb.flush_entries            0                       # Number of entries that have been flushed from TLB
system.cpu.itb.stage2_mmu.stage2_tlb.flush_tlb            0                       # Number of times complete TLB was flushed
system.cpu.itb.stage2_mmu.stage2_tlb.flush_tlb_asid            0                       # Number of times TLB was flushed by ASID
system.cpu.itb.stage2_mmu.stage2_tlb.flush_tlb_mva            0                       # Number of times TLB was flushed by MVA
system.cpu.itb.stage2_mmu.stage2_tlb.flush_tlb_mva_asid            0                       # Number of times TLB was flushed by MVA & ASID
system.cpu.itb.stage2_mmu.stage2_tlb.hits            0                       # DTB hits
system.cpu.itb.stage2_mmu.stage2_tlb.inst_accesses            0                       # ITB inst accesses
system.cpu.itb.stage2_mmu.stage2_tlb.inst_hits            0                       # ITB inst hits
system.cpu.itb.stage2_mmu.stage2_tlb.inst_misses            0                       # ITB inst misses
system.cpu.itb.stage2_mmu.stage2_tlb.misses            0                       # DTB misses
system.cpu.itb.stage2_mmu.stage2_tlb.perms_faults            0                       # Number of TLB faults due to permissions restrictions
system.cpu.itb.stage2_mmu.stage2_tlb.prefetch_faults            0                       # Number of TLB faults due to prefetch
system.cpu.itb.stage2_mmu.stage2_tlb.read_accesses            0                       # DTB read accesses
system.cpu.itb.stage2_mmu.stage2_tlb.read_hits            0                       # DTB read hits
system.cpu.itb.stage2_mmu.stage2_tlb.read_misses            0                       # DTB read misses
system.cpu.itb.stage2_mmu.stage2_tlb.walker.walkRequestOrigin_Requested::Data            0                       # Table walker requests started/completed, data/inst
system.cpu.itb.stage2_mmu.stage2_tlb.walker.walkRequestOrigin_Requested::Inst            0                       # Table walker requests started/completed, data/inst
system.cpu.itb.stage2_mmu.stage2_tlb.walker.walkRequestOrigin_Requested::total            0                       # Table walker requests started/completed, data/inst
system.cpu.itb.stage2_mmu.stage2_tlb.walker.walkRequestOrigin_Completed::Data            0                       # Table walker requests started/completed, data/inst
system.cpu.itb.stage2_mmu.stage2_tlb.walker.walkRequestOrigin_Completed::Inst            0                       # Table walker requests started/completed, data/inst
system.cpu.itb.stage2_mmu.stage2_tlb.walker.walkRequestOrigin_Completed::total            0                       # Table walker requests started/completed, data/inst
system.cpu.itb.stage2_mmu.stage2_tlb.walker.walkRequestOrigin::total            0                       # Table walker requests started/completed, data/inst
system.cpu.itb.stage2_mmu.stage2_tlb.walker.walks            0                       # Table walker walks requested
system.cpu.itb.stage2_mmu.stage2_tlb.write_accesses            0                       # DTB write accesses
system.cpu.itb.stage2_mmu.stage2_tlb.write_hits            0                       # DTB write hits
system.cpu.itb.stage2_mmu.stage2_tlb.write_misses            0                       # DTB write misses
system.cpu.itb.walker.walkRequestOrigin_Requested::Data            0                       # Table walker requests started/completed, data/inst
system.cpu.itb.walker.walkRequestOrigin_Requested::Inst            0                       # Table walker requests started/completed, data/inst
system.cpu.itb.walker.walkRequestOrigin_Requested::total            0                       # Table walker requests started/completed, data/inst
system.cpu.itb.walker.walkRequestOrigin_Completed::Data            0                       # Table walker requests started/completed, data/inst
system.cpu.itb.walker.walkRequestOrigin_Completed::Inst            0                       # Table walker requests started/completed, data/inst
system.cpu.itb.walker.walkRequestOrigin_Completed::total            0                       # Table walker requests started/completed, data/inst
system.cpu.itb.walker.walkRequestOrigin::total            0                       # Table walker requests started/completed, data/inst
system.cpu.itb.walker.walks                         0                       # Table walker walks requested
system.cpu.itb.write_accesses                       0                       # DTB write accesses
system.cpu.itb.write_hits                           0                       # DTB write hits
system.cpu.itb.write_misses                         0                       # DTB write misses
system.cpu.memDep0.conflictingLoads             56960                       # Number of conflicting loads.
system.cpu.memDep0.conflictingStores            89222                       # Number of conflicting stores.
system.cpu.memDep0.insertedLoads              2158117                       # Number of loads inserted to the mem dependence unit.
system.cpu.memDep0.insertedStores             2048696                       # Number of stores inserted to the mem dependence unit.
system.cpu.misc_regfile_reads                12787127                       # number of misc regfile reads
system.cpu.misc_regfile_writes                1077076                       # number of misc regfile writes
system.cpu.numCycles                          5548863                       # number of cpu cycles simulated
system.cpu.numWorkItemsCompleted                    0                       # number of work items this cpu completed
system.cpu.numWorkItemsStarted                      0                       # number of work items this cpu started
system.cpu.rename.BlockCycles                  187684                       # Number of cycles rename is blocking
system.cpu.rename.CommittedMaps              12621537                       # Number of HB maps that are committed
system.cpu.rename.IQFullEvents                 131916                       # Number of times rename has blocked due to IQ full
system.cpu.rename.IdleCycles                  1461680                       # Number of cycles rename is idle
system.cpu.rename.LQFullEvents                 204006                       # Number of times rename has blocked due to LQ full
system.cpu.rename.ROBFullEvents                 36312                       # Number of times rename has blocked due to ROB full
system.cpu.rename.RenameLookups              26021839                       # Number of register rename lookups that rename has made
system.cpu.rename.RenamedInsts               13046022                       # Number of instructions processed by rename
system.cpu.rename.RenamedOperands            13725549                       # Number of destination operands rename has renamed
system.cpu.rename.RunCycles                   2137574                       # Number of cycles rename is running
system.cpu.rename.SQFullEvents                 996732                       # Number of times rename has blocked due to SQ full
system.cpu.rename.SquashCycles                  32936                       # Number of cycles rename is squashing
system.cpu.rename.UnblockCycles               1384114                       # Number of cycles rename is unblocking
system.cpu.rename.UndoneMaps                  1103896                       # Number of HB maps that are undone due to squashing
system.cpu.rename.int_rename_lookups         14884458                       # Number of integer rename lookups
system.cpu.rename.serializeStallCycles         240225                       # count of cycles rename stalled for serializing inst
system.cpu.rename.serializingInsts              19684                       # count of serializing insts renamed
system.cpu.rename.skidInsts                   1082721                       # count of insts added to the skid buffer
system.cpu.rename.tempSerializingInsts           2023                       # count of temporary serializing insts renamed
system.cpu.rename.vec_rename_lookups          2634800                       # Number of vector rename lookups
system.cpu.rob.rob_reads                     17324108                       # The number of ROB reads
system.cpu.rob.rob_writes                    25973298                       # The number of ROB writes
system.cpu.timesIdled                            4082                       # Number of times that the entire CPU went into an idle state and unscheduled itself
system.cpu.vec_regfile_reads                  2518632                       # number of vector regfile reads
system.cpu.vec_regfile_writes                 1886725                       # number of vector regfile writes
system.cpu.workload.numSyscalls                    34                       # Number of system calls
system.membus.snoop_filter.hit_multi_requests            0                       # Number of requests hitting in the snoop filter with multiple (>1) holders of the requested data.
system.membus.snoop_filter.hit_multi_snoops            0                       # Number of snoops hitting in the snoop filter with multiple (>1) holders of the requested data.
system.membus.snoop_filter.hit_single_requests            0                       # Number of requests hitting in the snoop filter with a single holder of the requested data.
system.membus.snoop_filter.hit_single_snoops            0                       # Number of snoops hitting in the snoop filter with a single holder of the requested data.
system.membus.snoop_filter.tot_requests          6969                       # Total number of requests made to the snoop filter.
system.membus.snoop_filter.tot_snoops               0                       # Total number of snoops made to the snoop filter.
system.tol2bus.snoop_filter.hit_multi_requests            1                       # Number of requests hitting in the snoop filter with multiple (>1) holders of the requested data.
system.tol2bus.snoop_filter.hit_multi_snoops            0                       # Number of snoops hitting in the snoop filter with multiple (>1) holders of the requested data.
system.tol2bus.snoop_filter.hit_single_requests        28233                       # Number of requests hitting in the snoop filter with a single holder of the requested data.
system.tol2bus.snoop_filter.hit_single_snoops            0                       # Number of snoops hitting in the snoop filter with a single holder of the requested data.
system.tol2bus.snoop_filter.tot_requests        57746                       # Total number of requests made to the snoop filter.
system.tol2bus.snoop_filter.tot_snoops              0                       # Total number of snoops made to the snoop filter.
system.membus.trans_dist::ReadResp               1717                       # Transaction distribution
system.membus.trans_dist::ReadExReq              5240                       # Transaction distribution
system.membus.trans_dist::ReadExResp             5240                       # Transaction distribution
system.membus.trans_dist::ReadSharedReq          1717                       # Transaction distribution
system.membus.trans_dist::InvalidateReq            12                       # Transaction distribution
system.membus.pkt_count_system.l2.mem_side::system.mem_ctrls.port        13926                       # Packet count per connected master and slave (bytes)
system.membus.pkt_count::total                  13926                       # Packet count per connected master and slave (bytes)
system.membus.pkt_size_system.l2.mem_side::system.mem_ctrls.port       445248                       # Cumulative packet size per connected master and slave (bytes)
system.membus.pkt_size::total                  445248                       # Cumulative packet size per connected master and slave (bytes)
system.membus.snoops                                0                       # Total snoops (count)
system.membus.snoopTraffic                          0                       # Total snoop traffic (bytes)
system.membus.snoop_fanout::samples              6969                       # Request fanout histogram
system.membus.snoop_fanout::mean                    0                       # Request fanout histogram
system.membus.snoop_fanout::stdev                   0                       # Request fanout histogram
system.membus.snoop_fanout::underflows              0      0.00%      0.00% # Request fanout histogram
system.membus.snoop_fanout::0                    6969    100.00%    100.00% # Request fanout histogram
system.membus.snoop_fanout::1                       0      0.00%    100.00% # Request fanout histogram
system.membus.snoop_fanout::overflows               0      0.00%    100.00% # Request fanout histogram
system.membus.snoop_fanout::min_value               0                       # Request fanout histogram
system.membus.snoop_fanout::max_value               0                       # Request fanout histogram
system.membus.snoop_fanout::total                6969                       # Request fanout histogram
system.membus.reqLayer0.occupancy             8714500                       # Layer occupancy (ticks)
system.membus.reqLayer0.utilization               0.3                       # Layer utilization (%)
system.membus.respLayer1.occupancy           36777500                       # Layer occupancy (ticks)
system.membus.respLayer1.utilization              1.3                       # Layer utilization (%)
system.membus.power_state.pwrStateResidencyTicks::UNDEFINED   2774430500                       # Cumulative time (in ticks) in various power states
system.tol2bus.trans_dist::ReadResp             23702                       # Transaction distribution
system.tol2bus.trans_dist::WritebackDirty         8079                       # Transaction distribution
system.tol2bus.trans_dist::WritebackClean        19248                       # Transaction distribution
system.tol2bus.trans_dist::CleanEvict             906                       # Transaction distribution
system.tol2bus.trans_dist::ReadExReq             5638                       # Transaction distribution
system.tol2bus.trans_dist::ReadExResp            5638                       # Transaction distribution
system.tol2bus.trans_dist::ReadCleanReq         19504                       # Transaction distribution
system.tol2bus.trans_dist::ReadSharedReq         4198                       # Transaction distribution
system.tol2bus.trans_dist::InvalidateReq          173                       # Transaction distribution
system.tol2bus.trans_dist::InvalidateResp          173                       # Transaction distribution
system.tol2bus.pkt_count_system.cpu.icache.mem_side::system.l2.cpu_side        58256                       # Packet count per connected master and slave (bytes)
system.tol2bus.pkt_count_system.cpu.dcache.mem_side::system.l2.cpu_side        29003                       # Packet count per connected master and slave (bytes)
system.tol2bus.pkt_count::total                 87259                       # Packet count per connected master and slave (bytes)
system.tol2bus.pkt_size_system.cpu.icache.mem_side::system.l2.cpu_side      2480128                       # Cumulative packet size per connected master and slave (bytes)
system.tol2bus.pkt_size_system.cpu.dcache.mem_side::system.l2.cpu_side      1146560                       # Cumulative packet size per connected master and slave (bytes)
system.tol2bus.pkt_size::total                3626688                       # Cumulative packet size per connected master and slave (bytes)
system.tol2bus.snoops                               0                       # Total snoops (count)
system.tol2bus.snoopTraffic                         0                       # Total snoop traffic (bytes)
system.tol2bus.snoop_fanout::samples            29513                       # Request fanout histogram
system.tol2bus.snoop_fanout::mean            0.000034                       # Request fanout histogram
system.tol2bus.snoop_fanout::stdev           0.005821                       # Request fanout histogram
system.tol2bus.snoop_fanout::underflows             0      0.00%      0.00% # Request fanout histogram
system.tol2bus.snoop_fanout::0                  29512    100.00%    100.00% # Request fanout histogram
system.tol2bus.snoop_fanout::1                      1      0.00%    100.00% # Request fanout histogram
system.tol2bus.snoop_fanout::2                      0      0.00%    100.00% # Request fanout histogram
system.tol2bus.snoop_fanout::overflows              0      0.00%    100.00% # Request fanout histogram
system.tol2bus.snoop_fanout::min_value              0                       # Request fanout histogram
system.tol2bus.snoop_fanout::max_value              1                       # Request fanout histogram
system.tol2bus.snoop_fanout::total              29513                       # Request fanout histogram
system.tol2bus.reqLayer0.occupancy           58731806                       # Layer occupancy (ticks)
system.tol2bus.reqLayer0.utilization              2.1                       # Layer utilization (%)
system.tol2bus.respLayer1.occupancy          14842496                       # Layer occupancy (ticks)
system.tol2bus.respLayer1.utilization             0.5                       # Layer utilization (%)
system.tol2bus.respLayer0.occupancy          29256499                       # Layer occupancy (ticks)
system.tol2bus.respLayer0.utilization             1.1                       # Layer utilization (%)
system.tol2bus.power_state.pwrStateResidencyTicks::UNDEFINED   2774430500                       # Cumulative time (in ticks) in various power states
system.voltage_domain.voltage                       1                       # Voltage in Volts
system.clk_domain.clock                          1000                       # Clock period in ticks
system.l2.demand_hits::.cpu.inst                12783                       # number of demand (read+write) hits
system.l2.demand_hits::.cpu.data                 4103                       # number of demand (read+write) hits
system.l2.demand_hits::.cpu.icache.prefetcher         5497                       # number of demand (read+write) hits
system.l2.demand_hits::total                    22383                       # number of demand (read+write) hits
system.l2.overall_hits::.cpu.inst               12783                       # number of overall hits
system.l2.overall_hits::.cpu.data                4103                       # number of overall hits
system.l2.overall_hits::.cpu.icache.prefetcher         5497                       # number of overall hits
system.l2.overall_hits::total                   22383                       # number of overall hits
system.l2.demand_misses::.cpu.inst               1224                       # number of demand (read+write) misses
system.l2.demand_misses::.cpu.data               5733                       # number of demand (read+write) misses
system.l2.demand_misses::total                   6957                       # number of demand (read+write) misses
system.l2.overall_misses::.cpu.inst              1224                       # number of overall misses
system.l2.overall_misses::.cpu.data              5733                       # number of overall misses
system.l2.overall_misses::total                  6957                       # number of overall misses
system.l2.demand_miss_latency::.cpu.inst     95480000                       # number of demand (read+write) miss cycles
system.l2.demand_miss_latency::.cpu.data    461127000                       # number of demand (read+write) miss cycles
system.l2.demand_miss_latency::total        556607000                       # number of demand (read+write) miss cycles
system.l2.overall_miss_latency::.cpu.inst     95480000                       # number of overall miss cycles
system.l2.overall_miss_latency::.cpu.data    461127000                       # number of overall miss cycles
system.l2.overall_miss_latency::total       556607000                       # number of overall miss cycles
system.l2.demand_accesses::.cpu.inst            14007                       # number of demand (read+write) accesses
system.l2.demand_accesses::.cpu.data             9836                       # number of demand (read+write) accesses
system.l2.demand_accesses::.cpu.icache.prefetcher         5497                       # number of demand (read+write) accesses
system.l2.demand_accesses::total                29340                       # number of demand (read+write) accesses
system.l2.overall_accesses::.cpu.inst           14007                       # number of overall (read+write) accesses
system.l2.overall_accesses::.cpu.data            9836                       # number of overall (read+write) accesses
system.l2.overall_accesses::.cpu.icache.prefetcher         5497                       # number of overall (read+write) accesses
system.l2.overall_accesses::total               29340                       # number of overall (read+write) accesses
system.l2.demand_miss_rate::.cpu.inst        0.087385                       # miss rate for demand accesses
system.l2.demand_miss_rate::.cpu.data        0.582859                       # miss rate for demand accesses
system.l2.demand_miss_rate::total            0.237117                       # miss rate for demand accesses
system.l2.overall_miss_rate::.cpu.inst       0.087385                       # miss rate for overall accesses
system.l2.overall_miss_rate::.cpu.data       0.582859                       # miss rate for overall accesses
system.l2.overall_miss_rate::total           0.237117                       # miss rate for overall accesses
system.l2.demand_avg_miss_latency::.cpu.inst 78006.535948                       # average overall miss latency
system.l2.demand_avg_miss_latency::.cpu.data 80433.804291                       # average overall miss latency
system.l2.demand_avg_miss_latency::total 80006.755786                       # average overall miss latency
system.l2.overall_avg_miss_latency::.cpu.inst 78006.535948                       # average overall miss latency
system.l2.overall_avg_miss_latency::.cpu.data 80433.804291                       # average overall miss latency
system.l2.overall_avg_miss_latency::total 80006.755786                       # average overall miss latency
system.l2.blocked_cycles::no_mshrs                  0                       # number of cycles access was blocked
system.l2.blocked_cycles::no_targets                0                       # number of cycles access was blocked
system.l2.blocked::no_mshrs                         0                       # number of cycles access was blocked
system.l2.blocked::no_targets                       0                       # number of cycles access was blocked
system.l2.avg_blocked_cycles::no_mshrs            nan                       # average number of cycles each access was blocked
system.l2.avg_blocked_cycles::no_targets          nan                       # average number of cycles each access was blocked
system.l2.demand_mshr_misses::.cpu.inst          1224                       # number of demand (read+write) MSHR misses
system.l2.demand_mshr_misses::.cpu.data          5733                       # number of demand (read+write) MSHR misses
system.l2.demand_mshr_misses::total              6957                       # number of demand (read+write) MSHR misses
system.l2.overall_mshr_misses::.cpu.inst         1224                       # number of overall MSHR misses
system.l2.overall_mshr_misses::.cpu.data         5733                       # number of overall MSHR misses
system.l2.overall_mshr_misses::total             6957                       # number of overall MSHR misses
system.l2.demand_mshr_miss_latency::.cpu.inst     83240000                       # number of demand (read+write) MSHR miss cycles
system.l2.demand_mshr_miss_latency::.cpu.data    403797000                       # number of demand (read+write) MSHR miss cycles
system.l2.demand_mshr_miss_latency::total    487037000                       # number of demand (read+write) MSHR miss cycles
system.l2.overall_mshr_miss_latency::.cpu.inst     83240000                       # number of overall MSHR miss cycles
system.l2.overall_mshr_miss_latency::.cpu.data    403797000                       # number of overall MSHR miss cycles
system.l2.overall_mshr_miss_latency::total    487037000                       # number of overall MSHR miss cycles
system.l2.demand_mshr_miss_rate::.cpu.inst     0.087385                       # mshr miss rate for demand accesses
system.l2.demand_mshr_miss_rate::.cpu.data     0.582859                       # mshr miss rate for demand accesses
system.l2.demand_mshr_miss_rate::total       0.237117                       # mshr miss rate for demand accesses
system.l2.overall_mshr_miss_rate::.cpu.inst     0.087385                       # mshr miss rate for overall accesses
system.l2.overall_mshr_miss_rate::.cpu.data     0.582859                       # mshr miss rate for overall accesses
system.l2.overall_mshr_miss_rate::total      0.237117                       # mshr miss rate for overall accesses
system.l2.demand_avg_mshr_miss_latency::.cpu.inst 68006.535948                       # average overall mshr miss latency
system.l2.demand_avg_mshr_miss_latency::.cpu.data 70433.804291                       # average overall mshr miss latency
system.l2.demand_avg_mshr_miss_latency::total 70006.755786                       # average overall mshr miss latency
system.l2.overall_avg_mshr_miss_latency::.cpu.inst 68006.535948                       # average overall mshr miss latency
system.l2.overall_avg_mshr_miss_latency::.cpu.data 70433.804291                       # average overall mshr miss latency
system.l2.overall_avg_mshr_miss_latency::total 70006.755786                       # average overall mshr miss latency
system.l2.replacements                              0                       # number of replacements
system.l2.WritebackDirty_hits::.writebacks         8079                       # number of WritebackDirty hits
system.l2.WritebackDirty_hits::total             8079                       # number of WritebackDirty hits
system.l2.WritebackDirty_accesses::.writebacks         8079                       # number of WritebackDirty accesses(hits+misses)
system.l2.WritebackDirty_accesses::total         8079                       # number of WritebackDirty accesses(hits+misses)
system.l2.WritebackClean_hits::.writebacks        19247                       # number of WritebackClean hits
system.l2.WritebackClean_hits::total            19247                       # number of WritebackClean hits
system.l2.WritebackClean_accesses::.writebacks        19247                       # number of WritebackClean accesses(hits+misses)
system.l2.WritebackClean_accesses::total        19247                       # number of WritebackClean accesses(hits+misses)
system.l2.ReadExReq_hits::.cpu.data               398                       # number of ReadExReq hits
system.l2.ReadExReq_hits::total                   398                       # number of ReadExReq hits
system.l2.ReadExReq_misses::.cpu.data            5240                       # number of ReadExReq misses
system.l2.ReadExReq_misses::total                5240                       # number of ReadExReq misses
system.l2.ReadExReq_miss_latency::.cpu.data    421280000                       # number of ReadExReq miss cycles
system.l2.ReadExReq_miss_latency::total     421280000                       # number of ReadExReq miss cycles
system.l2.ReadExReq_accesses::.cpu.data          5638                       # number of ReadExReq accesses(hits+misses)
system.l2.ReadExReq_accesses::total              5638                       # number of ReadExReq accesses(hits+misses)
system.l2.ReadExReq_miss_rate::.cpu.data     0.929408                       # miss rate for ReadExReq accesses
system.l2.ReadExReq_miss_rate::total         0.929408                       # miss rate for ReadExReq accesses
system.l2.ReadExReq_avg_miss_latency::.cpu.data 80396.946565                       # average ReadExReq miss latency
system.l2.ReadExReq_avg_miss_latency::total 80396.946565                       # average ReadExReq miss latency
system.l2.ReadExReq_mshr_misses::.cpu.data         5240                       # number of ReadExReq MSHR misses
system.l2.ReadExReq_mshr_misses::total           5240                       # number of ReadExReq MSHR misses
system.l2.ReadExReq_mshr_miss_latency::.cpu.data    368880000                       # number of ReadExReq MSHR miss cycles
system.l2.ReadExReq_mshr_miss_latency::total    368880000                       # number of ReadExReq MSHR miss cycles
system.l2.ReadExReq_mshr_miss_rate::.cpu.data     0.929408                       # mshr miss rate for ReadExReq accesses
system.l2.ReadExReq_mshr_miss_rate::total     0.929408                       # mshr miss rate for ReadExReq accesses
system.l2.ReadExReq_avg_mshr_miss_latency::.cpu.data 70396.946565                       # average ReadExReq mshr miss latency
system.l2.ReadExReq_avg_mshr_miss_latency::total 70396.946565                       # average ReadExReq mshr miss latency
system.l2.ReadCleanReq_hits::.cpu.inst          12783                       # number of ReadCleanReq hits
system.l2.ReadCleanReq_hits::.cpu.icache.prefetcher         5497                       # number of ReadCleanReq hits
system.l2.ReadCleanReq_hits::total              18280                       # number of ReadCleanReq hits
system.l2.ReadCleanReq_misses::.cpu.inst         1224                       # number of ReadCleanReq misses
system.l2.ReadCleanReq_misses::total             1224                       # number of ReadCleanReq misses
system.l2.ReadCleanReq_miss_latency::.cpu.inst     95480000                       # number of ReadCleanReq miss cycles
system.l2.ReadCleanReq_miss_latency::total     95480000                       # number of ReadCleanReq miss cycles
system.l2.ReadCleanReq_accesses::.cpu.inst        14007                       # number of ReadCleanReq accesses(hits+misses)
system.l2.ReadCleanReq_accesses::.cpu.icache.prefetcher         5497                       # number of ReadCleanReq accesses(hits+misses)
system.l2.ReadCleanReq_accesses::total          19504                       # number of ReadCleanReq accesses(hits+misses)
[...]
system.cpu.icache.tags.occ_task_id_percent::1024     0.761719                       # Percentage of cache occupancy per task id
system.cpu.icache.tags.tag_accesses           3045746                       # Number of tag accesses
system.cpu.icache.tags.data_accesses          3045746                       # Number of data accesses
system.cpu.icache.tags.power_state.pwrStateResidencyTicks::UNDEFINED   2774430500                       # Cumulative time (in ticks) in various power states
system.cpu.dtb.walker.power_state.pwrStateResidencyTicks::UNDEFINED   2774430500                       # Cumulative time (in ticks) in various power states
system.cpu.dtb.stage2_mmu.stage2_tlb.walker.power_state.pwrStateResidencyTicks::UNDEFINED   2774430500                       # Cumulative time (in ticks) in various power states
system.cpu.itb.walker.power_state.pwrStateResidencyTicks::UNDEFINED   2774430500                       # Cumulative time (in ticks) in various power states
system.cpu.itb.stage2_mmu.stage2_tlb.walker.power_state.pwrStateResidencyTicks::UNDEFINED   2774430500                       # Cumulative time (in ticks) in various power states
system.cpu.dcache.demand_hits::.cpu.data      3928099                       # number of demand (read+write) hits
system.cpu.dcache.demand_hits::total          3928099                       # number of demand (read+write) hits
system.cpu.dcache.overall_hits::.cpu.data      3929272                       # number of overall hits
system.cpu.dcache.overall_hits::total         3929272                       # number of overall hits
system.cpu.dcache.demand_misses::.cpu.data        39300                       # number of demand (read+write) misses
system.cpu.dcache.demand_misses::total          39300                       # number of demand (read+write) misses
system.cpu.dcache.overall_misses::.cpu.data        39313                       # number of overall misses
system.cpu.dcache.overall_misses::total         39313                       # number of overall misses
system.cpu.dcache.demand_miss_latency::.cpu.data   1892042578                       # number of demand (read+write) miss cycles
system.cpu.dcache.demand_miss_latency::total   1892042578                       # number of demand (read+write) miss cycles
system.cpu.dcache.overall_miss_latency::.cpu.data   1892042578                       # number of overall miss cycles
system.cpu.dcache.overall_miss_latency::total   1892042578                       # number of overall miss cycles
system.cpu.dcache.demand_accesses::.cpu.data      3967399                       # number of demand (read+write) accesses
system.cpu.dcache.demand_accesses::total      3967399                       # number of demand (read+write) accesses
system.cpu.dcache.overall_accesses::.cpu.data      3968585                       # number of overall (read+write) accesses
system.cpu.dcache.overall_accesses::total      3968585                       # number of overall (read+write) accesses
system.cpu.dcache.demand_miss_rate::.cpu.data     0.009906                       # miss rate for demand accesses
system.cpu.dcache.demand_miss_rate::total     0.009906                       # miss rate for demand accesses
system.cpu.dcache.overall_miss_rate::.cpu.data     0.009906                       # miss rate for overall accesses
system.cpu.dcache.overall_miss_rate::total     0.009906                       # miss rate for overall accesses
system.cpu.dcache.demand_avg_miss_latency::.cpu.data 48143.577048                       # average overall miss latency
system.cpu.dcache.demand_avg_miss_latency::total 48143.577048                       # average overall miss latency
system.cpu.dcache.overall_avg_miss_latency::.cpu.data 48127.656958                       # average overall miss latency
system.cpu.dcache.overall_avg_miss_latency::total 48127.656958                       # average overall miss latency
system.cpu.dcache.blocked_cycles::no_mshrs        24256                       # number of cycles access was blocked
system.cpu.dcache.blocked_cycles::no_targets            0                       # number of cycles access was blocked
system.cpu.dcache.blocked::no_mshrs               679                       # number of cycles access was blocked
system.cpu.dcache.blocked::no_targets               0                       # number of cycles access was blocked
system.cpu.dcache.avg_blocked_cycles::no_mshrs    35.723122                       # average number of cycles each access was blocked
system.cpu.dcache.avg_blocked_cycles::no_targets          nan                       # average number of cycles each access was blocked
system.cpu.dcache.writebacks::.writebacks         8079                       # number of writebacks
system.cpu.dcache.writebacks::total              8079                       # number of writebacks
system.cpu.dcache.demand_mshr_hits::.cpu.data        29295                       # number of demand (read+write) MSHR hits
system.cpu.dcache.demand_mshr_hits::total        29295                       # number of demand (read+write) MSHR hits
system.cpu.dcache.overall_mshr_hits::.cpu.data        29295                       # number of overall MSHR hits
system.cpu.dcache.overall_mshr_hits::total        29295                       # number of overall MSHR hits
system.cpu.dcache.demand_mshr_misses::.cpu.data        10005                       # number of demand (read+write) MSHR misses
system.cpu.dcache.demand_mshr_misses::total        10005                       # number of demand (read+write) MSHR misses
system.cpu.dcache.overall_mshr_misses::.cpu.data        10009                       # number of overall MSHR misses
system.cpu.dcache.overall_mshr_misses::total        10009                       # number of overall MSHR misses
system.cpu.dcache.demand_mshr_miss_latency::.cpu.data    521725491                       # number of demand (read+write) MSHR miss cycles
system.cpu.dcache.demand_mshr_miss_latency::total    521725491                       # number of demand (read+write) MSHR miss cycles
system.cpu.dcache.overall_mshr_miss_latency::.cpu.data    522029491                       # number of overall MSHR miss cycles
system.cpu.dcache.overall_mshr_miss_latency::total    522029491                       # number of overall MSHR miss cycles
system.cpu.dcache.demand_mshr_miss_rate::.cpu.data     0.002522                       # mshr miss rate for demand accesses
system.cpu.dcache.demand_mshr_miss_rate::total     0.002522                       # mshr miss rate for demand accesses
system.cpu.dcache.overall_mshr_miss_rate::.cpu.data     0.002522                       # mshr miss rate for overall accesses
system.cpu.dcache.overall_mshr_miss_rate::total     0.002522                       # mshr miss rate for overall accesses
system.cpu.dcache.demand_avg_mshr_miss_latency::.cpu.data 52146.475862                       # average overall mshr miss latency
system.cpu.dcache.demand_avg_mshr_miss_latency::total 52146.475862                       # average overall mshr miss latency
system.cpu.dcache.overall_avg_mshr_miss_latency::.cpu.data 52156.008692                       # average overall mshr miss latency
system.cpu.dcache.overall_avg_mshr_miss_latency::total 52156.008692                       # average overall mshr miss latency
system.cpu.dcache.replacements                   8985                       # number of replacements
system.cpu.dcache.ReadReq_hits::.cpu.data      2099043                       # number of ReadReq hits
system.cpu.dcache.ReadReq_hits::total         2099043                       # number of ReadReq hits
system.cpu.dcache.ReadReq_misses::.cpu.data        13537                       # number of ReadReq misses
system.cpu.dcache.ReadReq_misses::total         13537                       # number of ReadReq misses
system.cpu.dcache.ReadReq_miss_latency::.cpu.data    338903000                       # number of ReadReq miss cycles
system.cpu.dcache.ReadReq_miss_latency::total    338903000                       # number of ReadReq miss cycles
system.cpu.dcache.ReadReq_accesses::.cpu.data      2112580                       # number of ReadReq accesses(hits+misses)
system.cpu.dcache.ReadReq_accesses::total      2112580                       # number of ReadReq accesses(hits+misses)
system.cpu.dcache.ReadReq_miss_rate::.cpu.data     0.006408                       # miss rate for ReadReq accesses
system.cpu.dcache.ReadReq_miss_rate::total     0.006408                       # miss rate for ReadReq accesses
system.cpu.dcache.ReadReq_avg_miss_latency::.cpu.data 25035.310630                       # average ReadReq miss latency
system.cpu.dcache.ReadReq_avg_miss_latency::total 25035.310630                       # average ReadReq miss latency
system.cpu.dcache.ReadReq_mshr_hits::.cpu.data         9343                       # number of ReadReq MSHR hits
system.cpu.dcache.ReadReq_mshr_hits::total         9343                       # number of ReadReq MSHR hits
system.cpu.dcache.ReadReq_mshr_misses::.cpu.data         4194                       # number of ReadReq MSHR misses
system.cpu.dcache.ReadReq_mshr_misses::total         4194                       # number of ReadReq MSHR misses
system.cpu.dcache.ReadReq_mshr_miss_latency::.cpu.data     85334500                       # number of ReadReq MSHR miss cycles
system.cpu.dcache.ReadReq_mshr_miss_latency::total     85334500                       # number of ReadReq MSHR miss cycles
system.cpu.dcache.ReadReq_mshr_miss_rate::.cpu.data     0.001985                       # mshr miss rate for ReadReq accesses
system.cpu.dcache.ReadReq_mshr_miss_rate::total     0.001985                       # mshr miss rate for ReadReq accesses
system.cpu.dcache.ReadReq_avg_mshr_miss_latency::.cpu.data 20346.804959                       # average ReadReq mshr miss latency
system.cpu.dcache.ReadReq_avg_mshr_miss_latency::total 20346.804959                       # average ReadReq mshr miss latency
system.cpu.dcache.WriteReq_hits::.cpu.data      1829056                       # number of WriteReq hits
system.cpu.dcache.WriteReq_hits::total        1829056                       # number of WriteReq hits
system.cpu.dcache.WriteReq_misses::.cpu.data        25756                       # number of WriteReq misses
system.cpu.dcache.WriteReq_misses::total        25756                       # number of WriteReq misses
system.cpu.dcache.WriteReq_miss_latency::.cpu.data   1552917080                       # number of WriteReq miss cycles
system.cpu.dcache.WriteReq_miss_latency::total   1552917080                       # number of WriteReq miss cycles
system.cpu.dcache.WriteReq_accesses::.cpu.data      1854812                       # number of WriteReq accesses(hits+misses)
system.cpu.dcache.WriteReq_accesses::total      1854812                       # number of WriteReq accesses(hits+misses)
system.cpu.dcache.WriteReq_miss_rate::.cpu.data     0.013886                       # miss rate for WriteReq accesses
system.cpu.dcache.WriteReq_miss_rate::total     0.013886                       # miss rate for WriteReq accesses
system.cpu.dcache.WriteReq_avg_miss_latency::.cpu.data 60293.410467                       # average WriteReq miss latency
system.cpu.dcache.WriteReq_avg_miss_latency::total 60293.410467                       # average WriteReq miss latency
system.cpu.dcache.WriteReq_mshr_hits::.cpu.data        19952                       # number of WriteReq MSHR hits
system.cpu.dcache.WriteReq_mshr_hits::total        19952                       # number of WriteReq MSHR hits
system.cpu.dcache.WriteReq_mshr_misses::.cpu.data         5804                       # number of WriteReq MSHR misses
system.cpu.dcache.WriteReq_mshr_misses::total         5804                       # number of WriteReq MSHR misses
system.cpu.dcache.WriteReq_mshr_miss_latency::.cpu.data    436175493                       # number of WriteReq MSHR miss cycles
system.cpu.dcache.WriteReq_mshr_miss_latency::total    436175493                       # number of WriteReq MSHR miss cycles
system.cpu.dcache.WriteReq_mshr_miss_rate::.cpu.data     0.003129                       # mshr miss rate for WriteReq accesses
system.cpu.dcache.WriteReq_mshr_miss_rate::total     0.003129                       # mshr miss rate for WriteReq accesses
system.cpu.dcache.WriteReq_avg_mshr_miss_latency::.cpu.data 75150.843039                       # average WriteReq mshr miss latency
system.cpu.dcache.WriteReq_avg_mshr_miss_latency::total 75150.843039                       # average WriteReq mshr miss latency
system.cpu.dcache.SoftPFReq_hits::.cpu.data         1173                       # number of SoftPFReq hits
system.cpu.dcache.SoftPFReq_hits::total          1173                       # number of SoftPFReq hits
system.cpu.dcache.SoftPFReq_misses::.cpu.data           13                       # number of SoftPFReq misses
system.cpu.dcache.SoftPFReq_misses::total           13                       # number of SoftPFReq misses
system.cpu.dcache.SoftPFReq_accesses::.cpu.data         1186                       # number of SoftPFReq accesses(hits+misses)
system.cpu.dcache.SoftPFReq_accesses::total         1186                       # number of SoftPFReq accesses(hits+misses)
system.cpu.dcache.SoftPFReq_miss_rate::.cpu.data     0.010961                       # miss rate for SoftPFReq accesses
system.cpu.dcache.SoftPFReq_miss_rate::total     0.010961                       # miss rate for SoftPFReq accesses
system.cpu.dcache.SoftPFReq_mshr_misses::.cpu.data            4                       # number of SoftPFReq MSHR misses
system.cpu.dcache.SoftPFReq_mshr_misses::total            4                       # number of SoftPFReq MSHR misses
system.cpu.dcache.SoftPFReq_mshr_miss_latency::.cpu.data       304000                       # number of SoftPFReq MSHR miss cycles
system.cpu.dcache.SoftPFReq_mshr_miss_latency::total       304000                       # number of SoftPFReq MSHR miss cycles
system.cpu.dcache.SoftPFReq_mshr_miss_rate::.cpu.data     0.003373                       # mshr miss rate for SoftPFReq accesses
system.cpu.dcache.SoftPFReq_mshr_miss_rate::total     0.003373                       # mshr miss rate for SoftPFReq accesses
system.cpu.dcache.SoftPFReq_avg_mshr_miss_latency::.cpu.data        76000                       # average SoftPFReq mshr miss latency
system.cpu.dcache.SoftPFReq_avg_mshr_miss_latency::total        76000                       # average SoftPFReq mshr miss latency
system.cpu.dcache.WriteLineReq_misses::.cpu.data            7                       # number of WriteLineReq misses
system.cpu.dcache.WriteLineReq_misses::total            7                       # number of WriteLineReq misses
system.cpu.dcache.WriteLineReq_miss_latency::.cpu.data       222498                       # number of WriteLineReq miss cycles
system.cpu.dcache.WriteLineReq_miss_latency::total       222498                       # number of WriteLineReq miss cycles
system.cpu.dcache.WriteLineReq_accesses::.cpu.data            7                       # number of WriteLineReq accesses(hits+misses)
system.cpu.dcache.WriteLineReq_accesses::total            7                       # number of WriteLineReq accesses(hits+misses)
system.cpu.dcache.WriteLineReq_miss_rate::.cpu.data            1                       # miss rate for WriteLineReq accesses
system.cpu.dcache.WriteLineReq_miss_rate::total            1                       # miss rate for WriteLineReq accesses
system.cpu.dcache.WriteLineReq_avg_miss_latency::.cpu.data 31785.428571                       # average WriteLineReq miss latency
system.cpu.dcache.WriteLineReq_avg_miss_latency::total 31785.428571                       # average WriteLineReq miss latency
system.cpu.dcache.WriteLineReq_mshr_misses::.cpu.data            7                       # number of WriteLineReq MSHR misses
system.cpu.dcache.WriteLineReq_mshr_misses::total            7                       # number of WriteLineReq MSHR misses
system.cpu.dcache.WriteLineReq_mshr_miss_latency::.cpu.data       215498                       # number of WriteLineReq MSHR miss cycles
system.cpu.dcache.WriteLineReq_mshr_miss_latency::total       215498                       # number of WriteLineReq MSHR miss cycles
system.cpu.dcache.WriteLineReq_mshr_miss_rate::.cpu.data            1                       # mshr miss rate for WriteLineReq accesses
system.cpu.dcache.WriteLineReq_mshr_miss_rate::total            1                       # mshr miss rate for WriteLineReq accesses
system.cpu.dcache.WriteLineReq_avg_mshr_miss_latency::.cpu.data 30785.428571                       # average WriteLineReq mshr miss latency
system.cpu.dcache.WriteLineReq_avg_mshr_miss_latency::total 30785.428571                       # average WriteLineReq mshr miss latency
system.cpu.dcache.LoadLockedReq_hits::.cpu.data         1952                       # number of LoadLockedReq hits
system.cpu.dcache.LoadLockedReq_hits::total         1952                       # number of LoadLockedReq hits
system.cpu.dcache.LoadLockedReq_accesses::.cpu.data         1952                       # number of LoadLockedReq accesses(hits+misses)
system.cpu.dcache.LoadLockedReq_accesses::total         1952                       # number of LoadLockedReq accesses(hits+misses)
system.cpu.dcache.StoreCondReq_hits::.cpu.data         1922                       # number of StoreCondReq hits
system.cpu.dcache.StoreCondReq_hits::total         1922                       # number of StoreCondReq hits
system.cpu.dcache.StoreCondReq_accesses::.cpu.data         1922                       # number of StoreCondReq accesses(hits+misses)
system.cpu.dcache.StoreCondReq_accesses::total         1922                       # number of StoreCondReq accesses(hits+misses)
system.cpu.dcache.power_state.pwrStateResidencyTicks::UNDEFINED   2774430500                       # Cumulative time (in ticks) in various power states
system.cpu.dcache.tags.tagsinuse           887.575536                       # Cycle average of tags in use
system.cpu.dcache.tags.total_refs             3943155                       # Total number of references to valid blocks.
system.cpu.dcache.tags.sampled_refs             10009                       # Sample count of references to valid blocks.
system.cpu.dcache.tags.avg_refs            393.960935                       # Average number of references to valid blocks.
system.cpu.dcache.tags.warmup_cycle            249500                       # Cycle when the warmup percentage was hit.
system.cpu.dcache.tags.occ_blocks::.cpu.data   887.575536                       # Average occupied blocks per requestor
system.cpu.dcache.tags.occ_percent::.cpu.data     0.866773                       # Average percentage of cache occupancy
system.cpu.dcache.tags.occ_percent::total     0.866773                       # Average percentage of cache occupancy
system.cpu.dcache.tags.occ_task_id_blocks::1024         1024                       # Occupied blocks per task id
system.cpu.dcache.tags.age_task_id_blocks_1024::0          229                       # Occupied blocks per task id
system.cpu.dcache.tags.age_task_id_blocks_1024::1          643                       # Occupied blocks per task id
system.cpu.dcache.tags.age_task_id_blocks_1024::2          152                       # Occupied blocks per task id
system.cpu.dcache.tags.occ_task_id_percent::1024            1                       # Percentage of cache occupancy per task id
system.cpu.dcache.tags.tag_accesses           7954927                       # Number of tag accesses
system.cpu.dcache.tags.data_accesses          7954927                       # Number of data accesses
system.cpu.dcache.tags.power_state.pwrStateResidencyTicks::UNDEFINED   2774430500                       # Cumulative time (in ticks) in various power states
system.cpu.power_state.pwrStateResidencyTicks::ON   2774430500                       # Cumulative time (in ticks) in various power states

---------- End Simulation Statistics   ----------
