
---------- Begin Simulation Statistics ----------
final_tick                                  153275000                       # Number of ticks from beginning of simulation (restored from checkpoints and never reset)
host_inst_rate                                 173110                       # Simulator instruction rate (inst/s)
host_mem_usage                                 861952                       # Number of bytes of host memory used
host_op_rate                                   176521                       # Simulator op (including micro ops) rate (op/s)
host_seconds                                     5.78                       # Real time elapsed on the host
host_tick_rate                               26532524                       # Simulator tick rate (ticks/s)
sim_freq                                 1000000000000                       # Frequency of simulated ticks
sim_insts                                     1000001                       # Number of instructions simulated
sim_ops                                       1019737                       # Number of ops (including micro ops) simulated
sim_seconds                                  0.000153                       # Number of seconds simulated
sim_ticks                                   153275000                       # Number of ticks simulated
system.cpu.branchPred.BTBCorrect                    0                       # Number of correct BTB predictions (this stat may not work properly.
system.cpu.branchPred.BTBHitPct             99.282915                       # BTB Hit Percentage
system.cpu.branchPred.BTBHits                  117547                       # Number of BTB hits
system.cpu.branchPred.BTBLookups               118396                       # Number of BTB lookups
system.cpu.branchPred.RASInCorrect                  0                       # Number of incorrect RAS predictions.
system.cpu.branchPred.condIncorrect              1022                       # Number of conditional branches incorrect
system.cpu.branchPred.condPredicted            143150                       # Number of conditional branches predicted
system.cpu.branchPred.indirectHits                 14                       # Number of indirect target hits.
system.cpu.branchPred.indirectLookups             213                       # Number of indirect predictor lookups.
system.cpu.branchPred.indirectMisses              199                       # Number of indirect misses.
system.cpu.branchPred.lookups                  157741                       # Number of BP lookups
system.cpu.branchPred.usedRAS                     719                       # Number of times the RAS was used to get a target.
system.cpu.branchPredindirectMispredicted           57                       # Number of mispredicted indirect branches.
system.cpu.cc_regfile_reads                    369744                       # number of cc regfile reads
system.cpu.cc_regfile_writes                   385717                       # number of cc regfile writes
system.cpu.commit.amos                              0                       # Number of atomic instructions committed
system.cpu.commit.branchMispredicts               775                       # The number of times a branch was mispredicted
system.cpu.commit.branches                     152825                       # Number of branches committed
system.cpu.commit.bw_lim_events                 30006                       # number cycles where commit BW limit reached
system.cpu.commit.commitNonSpecStalls              56                       # The number of times commit has been forced to stall to communicate backwards
system.cpu.commit.commitSquashedInsts           15378                       # The number of squashed insts skipped by commit
system.cpu.commit.committedInsts              1000087                       # Number of instructions committed
system.cpu.commit.committedOps                1019823                       # Number of ops (including micro ops) committed
system.cpu.commit.committed_per_cycle::samples       260711                       # Number of insts commited each cycle
system.cpu.commit.committed_per_cycle::mean     3.911699                       # Number of insts commited each cycle
system.cpu.commit.committed_per_cycle::stdev     3.326308                       # Number of insts commited each cycle
system.cpu.commit.committed_per_cycle::underflows            0      0.00%      0.00% # Number of insts commited each cycle
system.cpu.commit.committed_per_cycle::0        77362     29.67%     29.67% # Number of insts commited each cycle
system.cpu.commit.committed_per_cycle::1        28666     11.00%     40.67% # Number of insts commited each cycle
system.cpu.commit.committed_per_cycle::2        13927      5.34%     46.01% # Number of insts commited each cycle
system.cpu.commit.committed_per_cycle::3         7745      2.97%     48.98% # Number of insts commited each cycle
system.cpu.commit.committed_per_cycle::4         3494      1.34%     50.32% # Number of insts commited each cycle
system.cpu.commit.committed_per_cycle::5         2172      0.83%     51.15% # Number of insts commited each cycle
system.cpu.commit.committed_per_cycle::6         6189      2.37%     53.53% # Number of insts commited each cycle
system.cpu.commit.committed_per_cycle::7        91150     34.96%     88.49% # Number of insts commited each cycle
system.cpu.commit.committed_per_cycle::8        30006     11.51%    100.00% # Number of insts commited each cycle
system.cpu.commit.committed_per_cycle::overflows            0      0.00%    100.00% # Number of insts commited each cycle
system.cpu.commit.committed_per_cycle::min_value            0                       # Number of insts commited each cycle
system.cpu.commit.committed_per_cycle::max_value            8                       # Number of insts commited each cycle
system.cpu.commit.committed_per_cycle::total       260711                       # Number of insts commited each cycle
system.cpu.commit.fp_insts                          0                       # Number of committed floating point instructions.
system.cpu.commit.function_calls                  374                       # Number of function calls committed.
system.cpu.commit.int_insts                    810701                       # Number of committed integer instructions.
system.cpu.commit.loads                        256051                       # Number of loads committed
system.cpu.commit.membars                          48                       # Number of memory barriers committed
system.cpu.commit.op_class_0::No_OpClass           10      0.00%      0.00% # Class of committed instruction
system.cpu.commit.op_class_0::IntAlu           571430     56.03%     56.03% # Class of committed instruction
system.cpu.commit.op_class_0::IntMult            6238      0.61%     56.64% # Class of committed instruction
system.cpu.commit.op_class_0::IntDiv                7      0.00%     56.65% # Class of committed instruction
system.cpu.commit.op_class_0::FloatAdd           4094      0.40%     57.05% # Class of committed instruction
system.cpu.commit.op_class_0::FloatCmp          15846      1.55%     58.60% # Class of committed instruction
system.cpu.commit.op_class_0::FloatCvt           6163      0.60%     59.21% # Class of committed instruction
system.cpu.commit.op_class_0::FloatMult         21987      2.16%     61.36% # Class of committed instruction
system.cpu.commit.op_class_0::FloatMultAcc        21987      2.16%     63.52% # Class of committed instruction
system.cpu.commit.op_class_0::FloatDiv             22      0.00%     63.52% # Class of committed instruction
system.cpu.commit.op_class_0::FloatMisc          2070      0.20%     63.72% # Class of committed instruction
system.cpu.commit.op_class_0::FloatSqrt             0      0.00%     63.72% # Class of committed instruction
system.cpu.commit.op_class_0::SimdAdd              32      0.00%     63.73% # Class of committed instruction
system.cpu.commit.op_class_0::SimdAddAcc            0      0.00%     63.73% # Class of committed instruction
system.cpu.commit.op_class_0::SimdAlu              37      0.00%     63.73% # Class of committed instruction
system.cpu.commit.op_class_0::SimdCmp              40      0.00%     63.73% # Class of committed instruction
system.cpu.commit.op_class_0::SimdCvt               0      0.00%     63.73% # Class of committed instruction
system.cpu.commit.op_class_0::SimdMisc           2082      0.20%     63.94% # Class of committed instruction
system.cpu.commit.op_class_0::SimdMult              0      0.00%     63.94% # Class of committed instruction
system.cpu.commit.op_class_0::SimdMultAcc            0      0.00%     63.94% # Class of committed instruction
system.cpu.commit.op_class_0::SimdShift             0      0.00%     63.94% # Class of committed instruction
system.cpu.commit.op_class_0::SimdShiftAcc            0      0.00%     63.94% # Class of committed instruction
system.cpu.commit.op_class_0::SimdDiv               0      0.00%     63.94% # Class of committed instruction
system.cpu.commit.op_class_0::SimdSqrt              0      0.00%     63.94% # Class of committed instruction
system.cpu.commit.op_class_0::SimdFloatAdd            0      0.00%     63.94% # Class of committed instruction
system.cpu.commit.op_class_0::SimdFloatAlu            0      0.00%     63.94% # Class of committed instruction
system.cpu.commit.op_class_0::SimdFloatCmp            0      0.00%     63.94% # Class of committed instruction
system.cpu.commit.op_class_0::SimdFloatCvt            0      0.00%     63.94% # Class of committed instruction
system.cpu.commit.op_class_0::SimdFloatDiv            0      0.00%     63.94% # Class of committed instruction
system.cpu.commit.op_class_0::SimdFloatMisc            0      0.00%     63.94% # Class of committed instruction
system.cpu.commit.op_class_0::SimdFloatMult            0      0.00%     63.94% # Class of committed instruction
system.cpu.commit.op_class_0::SimdFloatMultAcc            0      0.00%     63.94% # Class of committed instruction
system.cpu.commit.op_class_0::SimdFloatSqrt            0      0.00%     63.94% # Class of committed instruction
system.cpu.commit.op_class_0::SimdReduceAdd            0      0.00%     63.94% # Class of committed instruction
system.cpu.commit.op_class_0::SimdReduceAlu            0      0.00%     63.94% # Class of committed instruction
system.cpu.commit.op_class_0::SimdReduceCmp            0      0.00%     63.94% # Class of committed instruction
system.cpu.commit.op_class_0::SimdFloatReduceAdd            0      0.00%     63.94% # Class of committed instruction
system.cpu.commit.op_class_0::SimdFloatReduceCmp            0      0.00%     63.94% # Class of committed instruction
system.cpu.commit.op_class_0::SimdAes               0      0.00%     63.94% # Class of committed instruction
system.cpu.commit.op_class_0::SimdAesMix            0      0.00%     63.94% # Class of committed instruction
system.cpu.commit.op_class_0::SimdSha1Hash            0      0.00%     63.94% # Class of committed instruction
system.cpu.commit.op_class_0::SimdSha1Hash2            0      0.00%     63.94% # Class of committed instruction
system.cpu.commit.op_class_0::SimdSha256Hash            0      0.00%     63.94% # Class of committed instruction
system.cpu.commit.op_class_0::SimdSha256Hash2            0      0.00%     63.94% # Class of committed instruction
system.cpu.commit.op_class_0::SimdShaSigma2            0      0.00%     63.94% # Class of committed instruction
system.cpu.commit.op_class_0::SimdShaSigma3            0      0.00%     63.94% # Class of committed instruction
system.cpu.commit.op_class_0::SimdPredAlu            0      0.00%     63.94% # Class of committed instruction
system.cpu.commit.op_class_0::MemRead          256051     25.11%     89.04% # Class of committed instruction
system.cpu.commit.op_class_0::MemWrite         111727     10.96%    100.00% # Class of committed instruction
system.cpu.commit.op_class_0::FloatMemRead            0      0.00%    100.00% # Class of committed instruction
system.cpu.commit.op_class_0::FloatMemWrite            0      0.00%    100.00% # Class of committed instruction
system.cpu.commit.op_class_0::IprAccess             0      0.00%    100.00% # Class of committed instruction
system.cpu.commit.op_class_0::InstPrefetch            0      0.00%    100.00% # Class of committed instruction
system.cpu.commit.op_class_0::total           1019823                       # Class of committed instruction
system.cpu.commit.refs                         367778                       # Number of memory references committed
system.cpu.commit.swp_count                         0                       # Number of s/w prefetches committed
system.cpu.commit.vec_insts                    110709                       # Number of committed Vector instructions.
system.cpu.committedInsts                     1000001                       # Number of Instructions Simulated
system.cpu.committedOps                       1019737                       # Number of Ops (including micro ops) Simulated
system.cpu.cpi                               0.306551                       # CPI: Cycles Per Instruction
system.cpu.cpi_total                         0.306551                       # CPI: Total CPI of All Threads
system.cpu.decode.BlockedCycles                 53023                       # Number of cycles decode is blocked
system.cpu.decode.BranchMispred                   252                       # Number of times decode detected a branch misprediction
system.cpu.decode.BranchResolved               117488                       # Number of times decode resolved a branch
system.cpu.decode.DecodedInsts                1041333                       # Number of instructions handled by decode
system.cpu.decode.IdleCycles                    57987                       # Number of cycles decode is idle
system.cpu.decode.RunCycles                    142038                       # Number of cycles decode is running
system.cpu.decode.SquashCycles                    813                       # Number of cycles decode is squashing
system.cpu.decode.SquashedInsts                   855                       # Number of squashed instructions handled by decode
system.cpu.decode.UnblockCycles                  9299                       # Number of cycles decode is unblocking
system.cpu.dtb.accesses                             0                       # DTB accesses
system.cpu.dtb.align_faults                         0                       # Number of TLB faults due to alignment restrictions
system.cpu.dtb.domain_faults                        0                       # Number of TLB faults due to domain restrictions
system.cpu.dtb.flush_entries                        0                       # Number of entries that have been flushed from TLB
system.cpu.dtb.flush_tlb                            0                       # Number of times complete TLB was flushed
system.cpu.dtb.flush_tlb_asid                       0                       # Number of times TLB was flushed by ASID
system.cpu.dtb.flush_tlb_mva                        0                       # Number of times TLB was flushed by MVA
system.cpu.dtb.flush_tlb_mva_asid                   0                       # Number of times TLB was flushed by MVA & ASID
system.cpu.dtb.hits                                 0                       # DTB hits
system.cpu.dtb.inst_accesses                        0                       # ITB inst accesses
system.cpu.dtb.inst_hits                            0                       # ITB inst hits
system.cpu.dtb.inst_misses                          0                       # ITB inst misses
system.cpu.dtb.misses                               0                       # DTB misses
system.cpu.dtb.perms_faults                         0                       # Number of TLB faults due to permissions restrictions
system.cpu.dtb.prefetch_faults                      0                       # Number of TLB faults due to prefetch
system.cpu.dtb.read_accesses                        0                       # DTB read accesses
system.cpu.dtb.read_hits                            0                       # DTB read hits
system.cpu.dtb.read_misses                          0                       # DTB read misses
system.cpu.dtb.stage2_mmu.stage2_tlb.accesses            0                       # DTB accesses
system.cpu.dtb.stage2_mmu.stage2_tlb.align_faults            0                       # Number of TLB faults due to alignment restrictions
system.cpu.dtb.stage2_mmu.stage2_tlb.domain_faults            0                       # Number of TLB faults due to domain restrictions
system.cpu.dtb.stage2_mmu.stage2_tlb.flush_entries            0                       # Number of entries that have been flushed from TLB
system.cpu.dtb.stage2_mmu.stage2_tlb.flush_tlb            0                       # Number of times complete TLB was flushed
system.cpu.dtb.stage2_mmu.stage2_tlb.flush_tlb_asid            0                       # Number of times TLB was flushed by ASID
system.cpu.dtb.stage2_mmu.stage2_tlb.flush_tlb_mva            0                       # Number of times TLB was flushed by MVA
system.cpu.dtb.stage2_mmu.stage2_tlb.flush_tlb_mva_asid            0                       # Number of times TLB was flushed by MVA & ASID
system.cpu.dtb.stage2_mmu.stage2_tlb.hits            0                       # DTB hits
system.cpu.dtb.stage2_mmu.stage2_tlb.inst_accesses            0                       # ITB inst accesses
system.cpu.dtb.stage2_mmu.stage2_tlb.inst_hits            0                       # ITB inst hits
system.cpu.dtb.stage2_mmu.stage2_tlb.inst_misses            0                       # ITB inst misses
system.cpu.dtb.stage2_mmu.stage2_tlb.misses            0                       # DTB misses
system.cpu.dtb.stage2_mmu.stage2_tlb.perms_faults            0                       # Number of TLB faults due to permissions restrictions
system.cpu.dtb.stage2_mmu.stage2_tlb.prefetch_faults            0                       # Number of TLB faults due to prefetch
system.cpu.dtb.stage2_mmu.stage2_tlb.read_accesses            0                       # DTB read accesses
system.cpu.dtb.stage2_mmu.stage2_tlb.read_hits            0                       # DTB read hits
system.cpu.dtb.stage2_mmu.stage2_tlb.read_misses            0                       # DTB read misses
system.cpu.dtb.stage2_mmu.stage2_tlb.walker.walkRequestOrigin_Requested::Data            0                       # Table walker requests started/completed, data/inst
system.cpu.dtb.stage2_mmu.stage2_tlb.walker.walkRequestOrigin_Requested::Inst            0                       # Table walker requests started/completed, data/inst
system.cpu.dtb.stage2_mmu.stage2_tlb.walker.walkRequestOrigin_Requested::total            0                       # Table walker requests started/completed, data/inst
system.cpu.dtb.stage2_mmu.stage2_tlb.walker.walkRequestOrigin_Completed::Data            0                       # Table walker requests started/completed, data/inst
system.cpu.dtb.stage2_mmu.stage2_tlb.walker.walkRequestOrigin_Completed::Inst            0                       # Table walker requests started/completed, data/inst
system.cpu.dtb.stage2_mmu.stage2_tlb.walker.walkRequestOrigin_Completed::total            0                       # Table walker requests started/completed, data/inst
system.cpu.dtb.stage2_mmu.stage2_tlb.walker.walkRequestOrigin::total            0                       # Table walker requests started/completed, data/inst
system.cpu.dtb.stage2_mmu.stage2_tlb.walker.walks            0                       # Table walker walks requested
system.cpu.dtb.stage2_mmu.stage2_tlb.write_accesses            0                       # DTB write accesses
system.cpu.dtb.stage2_mmu.stage2_tlb.write_hits            0                       # DTB write hits
system.cpu.dtb.stage2_mmu.stage2_tlb.write_misses            0                       # DTB write misses
system.cpu.dtb.walker.walkRequestOrigin_Requested::Data            0                       # Table walker requests started/completed, data/inst
system.cpu.dtb.walker.walkRequestOrigin_Requested::Inst            0                       # Table walker requests started/completed, data/inst
system.cpu.dtb.walker.walkRequestOrigin_Requested::total            0                       # Table walker requests started/completed, data/inst
system.cpu.dtb.walker.walkRequestOrigin_Completed::Data            0                       # Table walker requests started/completed, data/inst
system.cpu.dtb.walker.walkRequestOrigin_Completed::Inst            0                       # Table walker requests started/completed, data/inst
system.cpu.dtb.walker.walkRequestOrigin_Completed::total            0                       # Table walker requests started/completed, data/inst
system.cpu.dtb.walker.walkRequestOrigin::total            0                       # Table walker requests started/completed, data/inst
system.cpu.dtb.walker.walks                         0                       # Table walker walks requested
system.cpu.dtb.write_accesses                       0                       # DTB write accesses
system.cpu.dtb.write_hits                           0                       # DTB write hits
system.cpu.dtb.write_misses                         0                       # DTB write misses
system.cpu.fetch.Branches                      157741                       # Number of branches that fetch encountered
system.cpu.fetch.CacheLines                     42880                       # Number of cache lines fetched
system.cpu.fetch.Cycles                        201089                       # Number of cycles fetch has run and was not squashing or blocked
system.cpu.fetch.IcacheSquashes                   624                       # Number of outstanding Icache misses that were squashed
system.cpu.fetch.IcacheWaitRetryStallCycles           27                       # Number of stall cycles due to full MSHR
system.cpu.fetch.Insts                        1024169                       # Number of instructions fetch has processed
system.cpu.fetch.MiscStallCycles                    2                       # Number of cycles fetch has spent waiting on interrupts, or bad addresses, or out of MSHRs
system.cpu.fetch.SquashCycles                    2120                       # Number of cycles fetch has spent squashing
system.cpu.fetch.branchRate                  0.514567                       # Number of branch fetches per cycle
system.cpu.fetch.icacheStallCycles              60982                       # Number of cycles fetch is stalled on an Icache miss
system.cpu.fetch.predictedBranches             118280                       # Number of branches that fetch has predicted taken
system.cpu.fetch.rate                        3.340942                       # Number of inst fetches per cycle
system.cpu.fetch.rateDist::samples             263160                       # Number of instructions fetched each cycle (Total)
system.cpu.fetch.rateDist::mean              3.979226                       # Number of instructions fetched each cycle (Total)
system.cpu.fetch.rateDist::stdev             3.393466                       # Number of instructions fetched each cycle (Total)
system.cpu.fetch.rateDist::underflows               0      0.00%      0.00% # Number of instructions fetched each cycle (Total)
system.cpu.fetch.rateDist::0                    97366     37.00%     37.00% # Number of instructions fetched each cycle (Total)
system.cpu.fetch.rateDist::1                     9200      3.50%     40.49% # Number of instructions fetched each cycle (Total)
system.cpu.fetch.rateDist::2                     5815      2.21%     42.70% # Number of instructions fetched each cycle (Total)
system.cpu.fetch.rateDist::3                     5132      1.95%     44.65% # Number of instructions fetched each cycle (Total)
system.cpu.fetch.rateDist::4                     4232      1.61%     46.26% # Number of instructions fetched each cycle (Total)
system.cpu.fetch.rateDist::5                     5808      2.21%     48.47% # Number of instructions fetched each cycle (Total)
system.cpu.fetch.rateDist::6                    12561      4.77%     53.24% # Number of instructions fetched each cycle (Total)
system.cpu.fetch.rateDist::7                    94755     36.01%     89.25% # Number of instructions fetched each cycle (Total)
system.cpu.fetch.rateDist::8                    28291     10.75%    100.00% # Number of instructions fetched each cycle (Total)
system.cpu.fetch.rateDist::overflows                0      0.00%    100.00% # Number of instructions fetched each cycle (Total)
system.cpu.fetch.rateDist::min_value                0                       # Number of instructions fetched each cycle (Total)
system.cpu.fetch.rateDist::max_value                8                       # Number of instructions fetched each cycle (Total)
system.cpu.fetch.rateDist::total               263160                       # Number of instructions fetched each cycle (Total)
system.cpu.icache.prefetcher.num_hwpf_issued         1813                       # number of hwpf issued
system.cpu.icache.prefetcher.pfBufferHit           53                       # number of redundant prefetches already in prefetch queue
system.cpu.icache.prefetcher.pfIdentified         1953                       # number of prefetch candidates identified
system.cpu.icache.prefetcher.pfInCache              0                       # number of redundant prefetches already in cache/mshr dropped
system.cpu.icache.prefetcher.pfRemovedFull            0                       # number of prefetches dropped due to prefetch queue size
system.cpu.icache.prefetcher.pfSpanPage          1198                       # number of prefetches that crossed the page
system.cpu.idleCycles                           43391                       # Total number of cycles that the CPU has spent unscheduled due to idling
system.cpu.iew.branchMispredicts                  924                       # Number of branch mispredicts detected at execute
system.cpu.iew.exec_branches                   154294                       # Number of branches executed
system.cpu.iew.exec_nop                           132                       # number of nop insts executed
system.cpu.iew.exec_rate                     3.359868                       # Inst execution rate
system.cpu.iew.exec_refs                       371157                       # number of memory reference insts executed
system.cpu.iew.exec_stores                     112913                       # Number of stores executed
system.cpu.iew.exec_swp                             0                       # number of swp insts executed
system.cpu.iew.iewBlockCycles                    2083                       # Number of cycles IEW is blocking
system.cpu.iew.iewDispLoadInsts                258473                       # Number of dispatched load instructions
system.cpu.iew.iewDispNonSpecInsts                 70                       # Number of dispatched non-speculative instructions
system.cpu.iew.iewDispSquashedInsts               171                       # Number of squashed instructions skipped by dispatch
system.cpu.iew.iewDispStoreInsts               114144                       # Number of dispatched store instructions
system.cpu.iew.iewDispatchedInsts             1035417                       # Number of instructions dispatched to IQ
system.cpu.iew.iewExecLoadInsts                258244                       # Number of load instructions executed
system.cpu.iew.iewExecSquashedInsts              1357                       # Number of squashed instructions skipped in execute
system.cpu.iew.iewExecutedInsts               1029971                       # Number of executed instructions
system.cpu.iew.iewIQFullEvents                      6                       # Number of times the IQ has become full, causing a stall
system.cpu.iew.iewIdleCycles                        0                       # Number of cycles IEW is idle
system.cpu.iew.iewLSQFullEvents                  1836                       # Number of times the LSQ has become full, causing a stall
system.cpu.iew.iewSquashCycles                    813                       # Number of cycles IEW is squashing
system.cpu.iew.iewUnblockCycles                  1844                       # Number of cycles IEW is unblocking
system.cpu.iew.lsq.thread0.blockedLoads             0                       # Number of blocked loads due to partial load-store forwarding
system.cpu.iew.lsq.thread0.cacheBlocked           524                       # Number of times an access to memory failed due to the cache being blocked
system.cpu.iew.lsq.thread0.forwLoads               78                       # Number of loads that had data forwarded from stores
system.cpu.iew.lsq.thread0.ignoredResponses            0                       # Number of memory responses ignored because the instruction is squashed
system.cpu.iew.lsq.thread0.invAddrLoads             0                       # Number of loads ignored due to an invalid address
system.cpu.iew.lsq.thread0.invAddrSwpfs             0                       # Number of software prefetches ignored due to an invalid address
system.cpu.iew.lsq.thread0.memOrderViolation           16                       # Number of memory ordering violations
system.cpu.iew.lsq.thread0.rescheduledLoads           53                       # Number of loads that were rescheduled
system.cpu.iew.lsq.thread0.squashedLoads         2397                       # Number of loads squashed
system.cpu.iew.lsq.thread0.squashedStores         2417                       # Number of stores squashed
system.cpu.iew.memOrderViolationEvents             16                       # Number of memory order violations
system.cpu.iew.predictedNotTakenIncorrect          767                       # Number of branches that were predicted not taken incorrectly
system.cpu.iew.predictedTakenIncorrect            157                       # Number of branches that were predicted taken incorrectly
system.cpu.iew.wb_consumers                   1283100                       # num instructions consuming a value
system.cpu.iew.wb_count                       1028217                       # cumulative count of insts written-back
system.cpu.iew.wb_fanout                     0.576142                       # average fanout of values written-back
system.cpu.iew.wb_producers                    739248                       # num instructions producing a value
system.cpu.iew.wb_rate                       3.354147                       # insts written-back per cycle
system.cpu.iew.wb_sent                        1029042                       # cumulative count of insts sent to commit
system.cpu.int_regfile_reads                  1294687                       # number of integer regfile reads
system.cpu.int_regfile_writes                  665345                       # number of integer regfile writes
system.cpu.ipc                               3.262103                       # IPC: Instructions Per Cycle
system.cpu.ipc_total                         3.262103                       # IPC: Total IPC of All Threads
system.cpu.iq.FU_type_0::No_OpClass                13      0.00%      0.00% # Type of FU issued
system.cpu.iq.FU_type_0::IntAlu                578859     56.13%     56.13% # Type of FU issued
system.cpu.iq.FU_type_0::IntMult                 6239      0.60%     56.73% # Type of FU issued
system.cpu.iq.FU_type_0::IntDiv                    10      0.00%     56.73% # Type of FU issued
system.cpu.iq.FU_type_0::FloatAdd                4094      0.40%     57.13% # Type of FU issued
system.cpu.iq.FU_type_0::FloatCmp               15848      1.54%     58.67% # Type of FU issued
system.cpu.iq.FU_type_0::FloatCvt                6163      0.60%     59.27% # Type of FU issued
system.cpu.iq.FU_type_0::FloatMult              21996      2.13%     61.40% # Type of FU issued
system.cpu.iq.FU_type_0::FloatMultAcc           21994      2.13%     63.53% # Type of FU issued
system.cpu.iq.FU_type_0::FloatDiv                  22      0.00%     63.53% # Type of FU issued
system.cpu.iq.FU_type_0::FloatMisc               2071      0.20%     63.73% # Type of FU issued
system.cpu.iq.FU_type_0::FloatSqrt                  0      0.00%     63.73% # Type of FU issued
system.cpu.iq.FU_type_0::SimdAdd                   43      0.00%     63.74% # Type of FU issued
system.cpu.iq.FU_type_0::SimdAddAcc                 0      0.00%     63.74% # Type of FU issued
system.cpu.iq.FU_type_0::SimdAlu                   51      0.00%     63.74% # Type of FU issued
system.cpu.iq.FU_type_0::SimdCmp                   52      0.01%     63.75% # Type of FU issued
system.cpu.iq.FU_type_0::SimdCvt                    0      0.00%     63.75% # Type of FU issued
system.cpu.iq.FU_type_0::SimdMisc                2086      0.20%     63.95% # Type of FU issued
system.cpu.iq.FU_type_0::SimdMult                   0      0.00%     63.95% # Type of FU issued
system.cpu.iq.FU_type_0::SimdMultAcc                0      0.00%     63.95% # Type of FU issued
system.cpu.iq.FU_type_0::SimdShift                  0      0.00%     63.95% # Type of FU issued
system.cpu.iq.FU_type_0::SimdShiftAcc               0      0.00%     63.95% # Type of FU issued
system.cpu.iq.FU_type_0::SimdDiv                    0      0.00%     63.95% # Type of FU issued
system.cpu.iq.FU_type_0::SimdSqrt                   0      0.00%     63.95% # Type of FU issued
system.cpu.iq.FU_type_0::SimdFloatAdd               0      0.00%     63.95% # Type of FU issued
system.cpu.iq.FU_type_0::SimdFloatAlu               0      0.00%     63.95% # Type of FU issued
system.cpu.iq.FU_type_0::SimdFloatCmp               0      0.00%     63.95% # Type of FU issued
system.cpu.iq.FU_type_0::SimdFloatCvt               0      0.00%     63.95% # Type of FU issued
system.cpu.iq.FU_type_0::SimdFloatDiv               0      0.00%     63.95% # Type of FU issued
system.cpu.iq.FU_type_0::SimdFloatMisc              0      0.00%     63.95% # Type of FU issued
system.cpu.iq.FU_type_0::SimdFloatMult              0      0.00%     63.95% # Type of FU issued
system.cpu.iq.FU_type_0::SimdFloatMultAcc            0      0.00%     63.95% # Type of FU issued
system.cpu.iq.FU_type_0::SimdFloatSqrt              0      0.00%     63.95% # Type of FU issued
system.cpu.iq.FU_type_0::SimdReduceAdd              0      0.00%     63.95% # Type of FU issued
system.cpu.iq.FU_type_0::SimdReduceAlu              0      0.00%     63.95% # Type of FU issued
system.cpu.iq.FU_type_0::SimdReduceCmp              0      0.00%     63.95% # Type of FU issued
system.cpu.iq.FU_type_0::SimdFloatReduceAdd            0      0.00%     63.95% # Type of FU issued
system.cpu.iq.FU_type_0::SimdFloatReduceCmp            0      0.00%     63.95% # Type of FU issued
system.cpu.iq.FU_type_0::SimdAes                    0      0.00%     63.95% # Type of FU issued
system.cpu.iq.FU_type_0::SimdAesMix                 0      0.00%     63.95% # Type of FU issued
system.cpu.iq.FU_type_0::SimdSha1Hash               0      0.00%     63.95% # Type of FU issued
system.cpu.iq.FU_type_0::SimdSha1Hash2              0      0.00%     63.95% # Type of FU issued
system.cpu.iq.FU_type_0::SimdSha256Hash             0      0.00%     63.95% # Type of FU issued
system.cpu.iq.FU_type_0::SimdSha256Hash2            0      0.00%     63.95% # Type of FU issued
system.cpu.iq.FU_type_0::SimdShaSigma2              0      0.00%     63.95% # Type of FU issued
system.cpu.iq.FU_type_0::SimdShaSigma3              0      0.00%     63.95% # Type of FU issued
system.cpu.iq.FU_type_0::SimdPredAlu                0      0.00%     63.95% # Type of FU issued
system.cpu.iq.FU_type_0::MemRead               258520     25.07%     89.02% # Type of FU issued
system.cpu.iq.FU_type_0::MemWrite              113273     10.98%    100.00% # Type of FU issued
system.cpu.iq.FU_type_0::FloatMemRead               0      0.00%    100.00% # Type of FU issued
system.cpu.iq.FU_type_0::FloatMemWrite              0      0.00%    100.00% # Type of FU issued
system.cpu.iq.FU_type_0::IprAccess                  0      0.00%    100.00% # Type of FU issued
system.cpu.iq.FU_type_0::InstPrefetch               0      0.00%    100.00% # Type of FU issued
system.cpu.iq.FU_type_0::total                1031334                       # Type of FU issued
system.cpu.iq.fp_alu_accesses                       0                       # Number of floating point alu accesses
system.cpu.iq.fp_inst_queue_reads                   0                       # Number of floating instruction queue reads
system.cpu.iq.fp_inst_queue_wakeup_accesses            0                       # Number of floating instruction queue wakeup accesses
system.cpu.iq.fp_inst_queue_writes                  0                       # Number of floating instruction queue writes
system.cpu.iq.fu_busy_cnt                        1558                       # FU busy when requested
system.cpu.iq.fu_busy_rate                   0.001511                       # FU busy rate (busy events/executed inst)
system.cpu.iq.fu_full::No_OpClass                   0      0.00%      0.00% # attempts to use FU when none available
system.cpu.iq.fu_full::IntAlu                     234     15.02%     15.02% # attempts to use FU when none available
system.cpu.iq.fu_full::IntMult                      0      0.00%     15.02% # attempts to use FU when none available
system.cpu.iq.fu_full::IntDiv                       0      0.00%     15.02% # attempts to use FU when none available
system.cpu.iq.fu_full::FloatAdd                     0      0.00%     15.02% # attempts to use FU when none available
system.cpu.iq.fu_full::FloatCmp                     0      0.00%     15.02% # attempts to use FU when none available
system.cpu.iq.fu_full::FloatCvt                     0      0.00%     15.02% # attempts to use FU when none available
system.cpu.iq.fu_full::FloatMult                  316     20.28%     35.30% # attempts to use FU when none available
system.cpu.iq.fu_full::FloatMultAcc                 8      0.51%     35.82% # attempts to use FU when none available
system.cpu.iq.fu_full::FloatDiv                     0      0.00%     35.82% # attempts to use FU when none available
system.cpu.iq.fu_full::FloatMisc                    2      0.13%     35.94% # attempts to use FU when none available
system.cpu.iq.fu_full::FloatSqrt                    0      0.00%     35.94% # attempts to use FU when none available
system.cpu.iq.fu_full::SimdAdd                      0      0.00%     35.94% # attempts to use FU when none available
system.cpu.iq.fu_full::SimdAddAcc                   0      0.00%     35.94% # attempts to use FU when none available
system.cpu.iq.fu_full::SimdAlu                      2      0.13%     36.07% # attempts to use FU when none available
system.cpu.iq.fu_full::SimdCmp                      4      0.26%     36.33% # attempts to use FU when none available
system.cpu.iq.fu_full::SimdCvt                      0      0.00%     36.33% # attempts to use FU when none available
system.cpu.iq.fu_full::SimdMisc                     0      0.00%     36.33% # attempts to use FU when none available
system.cpu.iq.fu_full::SimdMult                     0      0.00%     36.33% # attempts to use FU when none available
system.cpu.iq.fu_full::SimdMultAcc                  0      0.00%     36.33% # attempts to use FU when none available
system.cpu.iq.fu_full::SimdShift                    0      0.00%     36.33% # attempts to use FU when none available
system.cpu.iq.fu_full::SimdShiftAcc                 0      0.00%     36.33% # attempts to use FU when none available
system.cpu.iq.fu_full::SimdDiv                      0      0.00%     36.33% # attempts to use FU when none available
system.cpu.iq.fu_full::SimdSqrt                     0      0.00%     36.33% # attempts to use FU when none available
system.cpu.iq.fu_full::SimdFloatAdd                 0      0.00%     36.33% # attempts to use FU when none available
system.cpu.iq.fu_full::SimdFloatAlu                 0      0.00%     36.33% # attempts to use FU when none available
system.cpu.iq.fu_full::SimdFloatCmp                 0      0.00%     36.33% # attempts to use FU when none available
system.cpu.iq.fu_full::SimdFloatCvt                 0      0.00%     36.33% # attempts to use FU when none available
system.cpu.iq.fu_full::SimdFloatDiv                 0      0.00%     36.33% # attempts to use FU when none available
system.cpu.iq.fu_full::SimdFloatMisc                0      0.00%     36.33% # attempts to use FU when none available
system.cpu.iq.fu_full::SimdFloatMult                0      0.00%     36.33% # attempts to use FU when none available
system.cpu.iq.fu_full::SimdFloatMultAcc             0      0.00%     36.33% # attempts to use FU when none available
system.cpu.iq.fu_full::SimdFloatSqrt                0      0.00%     36.33% # attempts to use FU when none available
system.cpu.iq.fu_full::SimdReduceAdd                0      0.00%     36.33% # attempts to use FU when none available
system.cpu.iq.fu_full::SimdReduceAlu                0      0.00%     36.33% # attempts to use FU when none available
system.cpu.iq.fu_full::SimdReduceCmp                0      0.00%     36.33% # attempts to use FU when none available
system.cpu.iq.fu_full::SimdFloatReduceAdd            0      0.00%     36.33% # attempts to use FU when none available
system.cpu.iq.fu_full::SimdFloatReduceCmp            0      0.00%     36.33% # attempts to use FU when none available
system.cpu.iq.fu_full::SimdAes                      0      0.00%     36.33% # attempts to use FU when none available
system.cpu.iq.fu_full::SimdAesMix                   0      0.00%     36.33% # attempts to use FU when none available
system.cpu.iq.fu_full::SimdSha1Hash                 0      0.00%     36.33% # attempts to use FU when none available
system.cpu.iq.fu_full::SimdSha1Hash2                0      0.00%     36.33% # attempts to use FU when none available
system.cpu.iq.fu_full::SimdSha256Hash               0      0.00%     36.33% # attempts to use FU when none available
system.cpu.iq.fu_full::SimdSha256Hash2              0      0.00%     36.33% # attempts to use FU when none available
system.cpu.iq.fu_full::SimdShaSigma2                0      0.00%     36.33% # attempts to use FU when none available
system.cpu.iq.fu_full::SimdShaSigma3                0      0.00%     36.33% # attempts to use FU when none available
system.cpu.iq.fu_full::SimdPredAlu                  0      0.00%     36.33% # attempts to use FU when none available
system.cpu.iq.fu_full::MemRead                    683     43.84%     80.17% # attempts to use FU when none available
system.cpu.iq.fu_full::MemWrite                   309     19.83%    100.00% # attempts to use FU when none available
system.cpu.iq.fu_full::FloatMemRead                 0      0.00%    100.00% # attempts to use FU when none available
system.cpu.iq.fu_full::FloatMemWrite                0      0.00%    100.00% # attempts to use FU when none available
system.cpu.iq.fu_full::IprAccess                    0      0.00%    100.00% # attempts to use FU when none available
system.cpu.iq.fu_full::InstPrefetch                 0      0.00%    100.00% # attempts to use FU when none available
system.cpu.iq.int_alu_accesses                 921312                       # Number of integer alu accesses
system.cpu.iq.int_inst_queue_reads            2104760                       # Number of integer instruction queue reads
system.cpu.iq.int_inst_queue_wakeup_accesses       917293                       # Number of integer instruction queue wakeup accesses
system.cpu.iq.int_inst_queue_writes            938295                       # Number of integer instruction queue writes
system.cpu.iq.iqInstsAdded                    1035215                       # Number of instructions added to the IQ (excludes non-spec)
system.cpu.iq.iqInstsIssued                   1031334                       # Number of instructions issued
system.cpu.iq.iqNonSpecInstsAdded                  70                       # Number of non-speculative instructions added to the IQ
system.cpu.iq.iqSquashedInstsExamined           15439                       # Number of squashed instructions iterated over during squash; mainly for profiling
system.cpu.iq.iqSquashedInstsIssued               247                       # Number of squashed instructions issued
system.cpu.iq.iqSquashedNonSpecRemoved             14                       # Number of squashed non-spec instructions that were removed
system.cpu.iq.iqSquashedOperandsExamined        12648                       # Number of squashed operands that are examined and possibly removed from graph
system.cpu.iq.issued_per_cycle::samples        263160                       # Number of insts issued each cycle
system.cpu.iq.issued_per_cycle::mean         3.919038                       # Number of insts issued each cycle
system.cpu.iq.issued_per_cycle::stdev        2.888510                       # Number of insts issued each cycle
system.cpu.iq.issued_per_cycle::underflows            0      0.00%      0.00% # Number of insts issued each cycle
system.cpu.iq.issued_per_cycle::0               61483     23.36%     23.36% # Number of insts issued each cycle
system.cpu.iq.issued_per_cycle::1               14629      5.56%     28.92% # Number of insts issued each cycle
system.cpu.iq.issued_per_cycle::2               13940      5.30%     34.22% # Number of insts issued each cycle
system.cpu.iq.issued_per_cycle::3               28766     10.93%     45.15% # Number of insts issued each cycle
system.cpu.iq.issued_per_cycle::4               24318      9.24%     54.39% # Number of insts issued each cycle
system.cpu.iq.issued_per_cycle::5               22082      8.39%     62.78% # Number of insts issued each cycle
system.cpu.iq.issued_per_cycle::6               14579      5.54%     68.32% # Number of insts issued each cycle
system.cpu.iq.issued_per_cycle::7               59533     22.62%     90.94% # Number of insts issued each cycle
system.cpu.iq.issued_per_cycle::8               23830      9.06%    100.00% # Number of insts issued each cycle
system.cpu.iq.issued_per_cycle::overflows            0      0.00%    100.00% # Number of insts issued each cycle
system.cpu.iq.issued_per_cycle::min_value            0                       # Number of insts issued each cycle
system.cpu.iq.issued_per_cycle::max_value            8                       # Number of insts issued each cycle
system.cpu.iq.issued_per_cycle::total          263160                       # Number of insts issued each cycle
system.cpu.iq.rate                           3.364315                       # Inst issue rate
system.cpu.iq.vec_alu_accesses                 111567                       # Number of vector alu accesses
system.cpu.iq.vec_inst_queue_reads             222867                       # Number of vector instruction queue reads
system.cpu.iq.vec_inst_queue_wakeup_accesses       110924                       # Number of vector instruction queue wakeup accesses
system.cpu.iq.vec_inst_queue_writes            112443                       # Number of vector instruction queue writes
system.cpu.itb.accesses                             0                       # DTB accesses
system.cpu.itb.align_faults                         0                       # Number of TLB faults due to alignment restrictions
system.cpu.itb.domain_faults                        0                       # Number of TLB faults due to domain restrictions
system.cpu.itb.flush_entries                        0                       # Number of entries that have been flushed from TLB
system.cpu.itb.flush_tlb                            0                       # Number of times complete TLB was flushed
system.cpu.itb.flush_tlb_asid                       0                       # Number of times TLB was flushed by ASID
system.cpu.itb.flush_tlb_mva                        0                       # Number of times TLB was flushed by MVA
system.cpu.itb.flush_tlb_mva_asid                   0                       # Number of times TLB was flushed by MVA & ASID
system.cpu.itb.hits                                 0                       # DTB hits
system.cpu.itb.inst_accesses                        0                       # ITB inst accesses
system.cpu.itb.inst_hits                            0                       # ITB inst hits
system.cpu.itb.inst_misses                          0                       # ITB inst misses
system.cpu.itb.misses                               0                       # DTB misses
system.cpu.itb.perms_faults                         0                       # Number of TLB faults due to permissions restrictions
system.cpu.itb.prefetch_faults                      0                       # Number of TLB faults due to prefetch
system.cpu.itb.read_accesses                        0                       # DTB read accesses
system.cpu.itb.read_hits                            0                       # DTB read hits
system.cpu.itb.read_misses                          0                       # DTB read misses
system.cpu.itb.stage2_mmu.stage2_tlb.accesses            0                       # DTB accesses
system.cpu.itb.stage2_mmu.stage2_tlb.align_faults            0                       # Number of TLB faults due to alignment restrictions
system.cpu.itb.stage2_mmu.stage2_tlb.domain_faults            0                       # Number of TLB faults due to domain restrictions
system.cpu.itb.stage2_mmu.stage2_tlb.flush_entries            0                       # Number of entries that have been flushed from TLB
system.cpu.itb.stage2_mmu.stage2_tlb.flush_tlb            0                       # Number of times complete TLB was flushed
system.cpu.itb.stage2_mmu.stage2_tlb.flush_tlb_asid            0                       # Number of times TLB was flushed by ASID
system.cpu.itb.stage2_mmu.stage2_tlb.flush_tlb_mva            0                       # Number of times TLB was flushed by MVA
system.cpu.itb.stage2_mmu.stage2_tlb.flush_tlb_mva_asid            0                       # Number of times TLB was flushed by MVA & ASID
system.cpu.itb.stage2_mmu.stage2_tlb.hits            0                       # DTB hits
system.cpu.itb.stage2_mmu.stage2_tlb.inst_accesses            0                       # ITB inst accesses
system.cpu.itb.stage2_mmu.stage2_tlb.inst_hits            0                       # ITB inst hits
system.cpu.itb.stage2_mmu.stage2_tlb.inst_misses            0                       # ITB inst misses
system.cpu.itb.stage2_mmu.stage2_tlb.misses            0                       # DTB misses
system.cpu.itb.stage2_mmu.stage2_tlb.perms_faults            0                       # Number of TLB faults due to permissions restrictions
system.cpu.itb.stage2_mmu.stage2_tlb.prefetch_faults            0                       # Number of TLB faults due to prefetch
system.cpu.itb.stage2_mmu.stage2_tlb.read_accesses            0                       # DTB read accesses
system.cpu.itb.stage2_mmu.stage2_tlb.read_hits            0                       # DTB read hits
system.cpu.itb.stage2_mmu.stage2_tlb.read_misses            0                       # DTB read misses
system.cpu.itb.stage2_mmu.stage2_tlb.walker.walkRequestOrigin_Requested::Data            0                       # Table walker requests started/completed, data/inst
system.cpu.itb.stage2_mmu.stage2_tlb.walker.walkRequestOrigin_Requested::Inst            0                       # Table walker requests started/completed, data/inst
system.cpu.itb.stage2_mmu.stage2_tlb.walker.walkRequestOrigin_Requested::total            0                       # Table walker requests started/completed, data/inst
system.cpu.itb.stage2_mmu.stage2_tlb.walker.walkRequestOrigin_Completed::Data            0                       # Table walker requests started/completed, data/inst
system.cpu.itb.stage2_mmu.stage2_tlb.walker.walkRequestOrigin_Completed::Inst            0                       # Table walker requests started/completed, data/inst
system.cpu.itb.stage2_mmu.stage2_tlb.walker.walkRequestOrigin_Completed::total            0                       # Table walker requests started/completed, data/inst
system.cpu.itb.stage2_mmu.stage2_tlb.walker.walkRequestOrigin::total            0                       # Table walker requests started/completed, data/inst
system.cpu.itb.stage2_mmu.stage2_tlb.walker.walks            0                       # Table walker walks requested
system.cpu.itb.stage2_mmu.stage2_tlb.write_accesses            0                       # DTB write accesses
system.cpu.itb.stage2_mmu.stage2_tlb.write_hits            0                       # DTB write hits
system.cpu.itb.stage2_mmu.stage2_tlb.write_misses            0                       # DTB write misses
system.cpu.itb.walker.walkRequestOrigin_Requested::Data            0                       # Table walker requests started/completed, data/inst
system.cpu.itb.walker.walkRequestOrigin_Requested::Inst            0                       # Table walker requests started/completed, data/inst
system.cpu.itb.walker.walkRequestOrigin_Requested::total            0                       # Table walker requests started/completed, data/inst
system.cpu.itb.walker.walkRequestOrigin_Completed::Data            0                       # Table walker requests started/completed, data/inst
system.cpu.itb.walker.walkRequestOrigin_Completed::Inst            0                       # Table walker requests started/completed, data/inst
system.cpu.itb.walker.walkRequestOrigin_Completed::total            0                       # Table walker requests started/completed, data/inst
system.cpu.itb.walker.walkRequestOrigin::total            0                       # Table walker requests started/completed, data/inst
system.cpu.itb.walker.walks                         0                       # Table walker walks requested
system.cpu.itb.write_accesses                       0                       # DTB write accesses
system.cpu.itb.write_hits                           0                       # DTB write hits
system.cpu.itb.write_misses                         0                       # DTB write misses
system.cpu.memDep0.conflictingLoads              2053                       # Number of conflicting loads.
system.cpu.memDep0.conflictingStores             2061                       # Number of conflicting stores.
system.cpu.memDep0.insertedLoads               258473                       # Number of loads inserted to the mem dependence unit.
system.cpu.memDep0.insertedStores              114144                       # Number of stores inserted to the mem dependence unit.
system.cpu.misc_regfile_reads                  948855                       # number of misc regfile reads
system.cpu.misc_regfile_writes                  70292                       # number of misc regfile writes
system.cpu.numCycles                           306551                       # number of cpu cycles simulated
system.cpu.numWorkItemsCompleted                    0                       # number of work items this cpu completed
system.cpu.numWorkItemsStarted                      0                       # number of work items this cpu started
system.cpu.rename.BlockCycles                    3808                       # Number of cycles rename is blocking
system.cpu.rename.CommittedMaps               1206644                       # Number of HB maps that are committed
system.cpu.rename.IQFullEvents                   3145                       # Number of times rename has blocked due to IQ full
system.cpu.rename.IdleCycles                    62869                       # Number of cycles rename is idle
system.cpu.rename.LQFullEvents                   1415                       # Number of times rename has blocked due to LQ full
system.cpu.rename.RenameLookups               2147693                       # Number of register rename lookups that rename has made
system.cpu.rename.RenamedInsts                1038705                       # Number of instructions processed by rename
system.cpu.rename.RenamedOperands             1224960                       # Number of destination operands rename has renamed
system.cpu.rename.RunCycles                    146411                       # Number of cycles rename is running
system.cpu.rename.SQFullEvents                  33963                       # Number of times rename has blocked due to SQ full
system.cpu.rename.SquashCycles                    813                       # Number of cycles rename is squashing
system.cpu.rename.UnblockCycles                 42857                       # Number of cycles rename is unblocking
system.cpu.rename.UndoneMaps                    18136                       # Number of HB maps that are undone due to squashing
system.cpu.rename.int_rename_lookups          1305134                       # Number of integer rename lookups
system.cpu.rename.serializeStallCycles           6402                       # count of cycles rename stalled for serializing inst
system.cpu.rename.serializingInsts                285                       # count of serializing insts renamed
system.cpu.rename.skidInsts                     45137                       # count of insts added to the skid buffer
system.cpu.rename.tempSerializingInsts             70                       # count of temporary serializing insts renamed
system.cpu.rename.vec_rename_lookups           172199                       # Number of vector rename lookups
system.cpu.rob.rob_reads                      1265542                       # The number of ROB reads
system.cpu.rob.rob_writes                     2072964                       # The number of ROB writes
system.cpu.timesIdled                             589                       # Number of times that the entire CPU went into an idle state and unscheduled itself
system.cpu.vec_regfile_reads                   171360                       # number of vector regfile reads
system.cpu.vec_regfile_writes                   94581                       # number of vector regfile writes
system.cpu.workload.numSyscalls                     7                       # Number of system calls
system.membus.snoop_filter.hit_multi_requests            0                       # Number of requests hitting in the snoop filter with multiple (>1) holders of the requested data.
system.membus.snoop_filter.hit_multi_snoops            0                       # Number of snoops hitting in the snoop filter with multiple (>1) holders of the requested data.
system.membus.snoop_filter.hit_single_requests            0                       # Number of requests hitting in the snoop filter with a single holder of the requested data.
system.membus.snoop_filter.hit_single_snoops            0                       # Number of snoops hitting in the snoop filter with a single holder of the requested data.
system.membus.snoop_filter.tot_requests          1855                       # Total number of requests made to the snoop filter.
system.membus.snoop_filter.tot_snoops               0                       # Total number of snoops made to the snoop filter.
system.tol2bus.snoop_filter.hit_multi_requests            1                       # Number of requests hitting in the snoop filter with multiple (>1) holders of the requested data.
system.tol2bus.snoop_filter.hit_multi_snoops            0                       # Number of snoops hitting in the snoop filter with multiple (>1) holders of the requested data.
system.tol2bus.snoop_filter.hit_single_requests         1922                       # Number of requests hitting in the snoop filter with a single holder of the requested data.
system.tol2bus.snoop_filter.hit_single_snoops            0                       # Number of snoops hitting in the snoop filter with a single holder of the requested data.
system.tol2bus.snoop_filter.tot_requests         4992                       # Total number of requests made to the snoop filter.
system.tol2bus.snoop_filter.tot_snoops              0                       # Total number of snoops made to the snoop filter.
system.membus.trans_dist::ReadResp                611                       # Transaction distribution
system.membus.trans_dist::ReadExReq               698                       # Transaction distribution
system.membus.trans_dist::ReadExResp              698                       # Transaction distribution
system.membus.trans_dist::ReadSharedReq           611                       # Transaction distribution
system.membus.trans_dist::InvalidateReq           546                       # Transaction distribution
system.membus.pkt_count_system.l2.mem_side::system.mem_ctrls.port         3164                       # Packet count per connected master and slave (bytes)
system.membus.pkt_count::total                   3164                       # Packet count per connected master and slave (bytes)
system.membus.pkt_size_system.l2.mem_side::system.mem_ctrls.port        83776                       # Cumulative packet size per connected master and slave (bytes)
system.membus.pkt_size::total                   83776                       # Cumulative packet size per connected master and slave (bytes)
system.membus.snoops                                0                       # Total snoops (count)
system.membus.snoopTraffic                          0                       # Total snoop traffic (bytes)
system.membus.snoop_fanout::samples              1855                       # Request fanout histogram
system.membus.snoop_fanout::mean                    0                       # Request fanout histogram
system.membus.snoop_fanout::stdev                   0                       # Request fanout histogram
system.membus.snoop_fanout::underflows              0      0.00%      0.00% # Request fanout histogram
system.membus.snoop_fanout::0                    1855    100.00%    100.00% # Request fanout histogram
system.membus.snoop_fanout::1                       0      0.00%    100.00% # Request fanout histogram
system.membus.snoop_fanout::overflows               0      0.00%    100.00% # Request fanout histogram
system.membus.snoop_fanout::min_value               0                       # Request fanout histogram
system.membus.snoop_fanout::max_value               0                       # Request fanout histogram
system.membus.snoop_fanout::total                1855                       # Request fanout histogram
system.membus.reqLayer0.occupancy             2145000                       # Layer occupancy (ticks)
system.membus.reqLayer0.utilization               1.4                       # Layer utilization (%)
system.membus.respLayer1.occupancy            6906750                       # Layer occupancy (ticks)
system.membus.respLayer1.utilization              4.5                       # Layer utilization (%)
system.membus.power_state.pwrStateResidencyTicks::UNDEFINED    153275000                       # Cumulative time (in ticks) in various power states
system.tol2bus.trans_dist::ReadResp              1619                       # Transaction distribution
system.tol2bus.trans_dist::WritebackDirty          721                       # Transaction distribution
system.tol2bus.trans_dist::WritebackClean         1115                       # Transaction distribution
system.tol2bus.trans_dist::CleanEvict              86                       # Transaction distribution
system.tol2bus.trans_dist::ReadExReq              905                       # Transaction distribution
system.tol2bus.trans_dist::ReadExResp             905                       # Transaction distribution
system.tol2bus.trans_dist::ReadCleanReq          1243                       # Transaction distribution
system.tol2bus.trans_dist::ReadSharedReq          376                       # Transaction distribution
system.tol2bus.trans_dist::InvalidateReq          546                       # Transaction distribution
system.tol2bus.trans_dist::InvalidateResp          546                       # Transaction distribution
system.tol2bus.pkt_count_system.cpu.icache.mem_side::system.l2.cpu_side         3601                       # Packet count per connected master and slave (bytes)
system.tol2bus.pkt_count_system.cpu.dcache.mem_side::system.l2.cpu_side         4461                       # Packet count per connected master and slave (bytes)
system.tol2bus.pkt_count::total                  8062                       # Packet count per connected master and slave (bytes)
system.tol2bus.pkt_size_system.cpu.icache.mem_side::system.l2.cpu_side       150912                       # Cumulative packet size per connected master and slave (bytes)
system.tol2bus.pkt_size_system.cpu.dcache.mem_side::system.l2.cpu_side       128128                       # Cumulative packet size per connected master and slave (bytes)
system.tol2bus.pkt_size::total                 279040                       # Cumulative packet size per connected master and slave (bytes)
system.tol2bus.snoops                               0                       # Total snoops (count)
system.tol2bus.snoopTraffic                         0                       # Total snoop traffic (bytes)
system.tol2bus.snoop_fanout::samples             3070                       # Request fanout histogram
system.tol2bus.snoop_fanout::mean            0.000326                       # Request fanout histogram
system.tol2bus.snoop_fanout::stdev           0.018048                       # Request fanout histogram
system.tol2bus.snoop_fanout::underflows             0      0.00%      0.00% # Request fanout histogram
system.tol2bus.snoop_fanout::0                   3069     99.97%     99.97% # Request fanout histogram
system.tol2bus.snoop_fanout::1                      1      0.03%    100.00% # Request fanout histogram
system.tol2bus.snoop_fanout::2                      0      0.00%    100.00% # Request fanout histogram
system.tol2bus.snoop_fanout::overflows              0      0.00%    100.00% # Request fanout histogram
system.tol2bus.snoop_fanout::min_value              0                       # Request fanout histogram
system.tol2bus.snoop_fanout::max_value              1                       # Request fanout histogram
system.tol2bus.snoop_fanout::total               3070                       # Request fanout histogram
system.tol2bus.reqLayer0.occupancy            4463088                       # Layer occupancy (ticks)
system.tol2bus.reqLayer0.utilization              2.9                       # Layer utilization (%)
system.tol2bus.respLayer1.occupancy           2199989                       # Layer occupancy (ticks)
system.tol2bus.respLayer1.utilization             1.4                       # Layer utilization (%)
system.tol2bus.respLayer0.occupancy           1864500                       # Layer occupancy (ticks)
system.tol2bus.respLayer0.utilization             1.2                       # Layer utilization (%)
system.tol2bus.power_state.pwrStateResidencyTicks::UNDEFINED    153275000                       # Cumulative time (in ticks) in various power states
system.voltage_domain.voltage                       1                       # Voltage in Volts
system.clk_domain.clock                          1000                       # Clock period in ticks
system.l2.demand_hits::.cpu.inst                  358                       # number of demand (read+write) hits
system.l2.demand_hits::.cpu.data                  481                       # number of demand (read+write) hits
system.l2.demand_hits::.cpu.icache.prefetcher          376                       # number of demand (read+write) hits
system.l2.demand_hits::total                     1215                       # number of demand (read+write) hits
system.l2.overall_hits::.cpu.inst                 358                       # number of overall hits
system.l2.overall_hits::.cpu.data                 481                       # number of overall hits
system.l2.overall_hits::.cpu.icache.prefetcher          376                       # number of overall hits
system.l2.overall_hits::total                    1215                       # number of overall hits
system.l2.demand_misses::.cpu.inst                509                       # number of demand (read+write) misses
system.l2.demand_misses::.cpu.data                800                       # number of demand (read+write) misses
system.l2.demand_misses::total                   1309                       # number of demand (read+write) misses
system.l2.overall_misses::.cpu.inst               509                       # number of overall misses
system.l2.overall_misses::.cpu.data               800                       # number of overall misses
system.l2.overall_misses::total                  1309                       # number of overall misses
system.l2.demand_miss_latency::.cpu.inst     40310000                       # number of demand (read+write) miss cycles
system.l2.demand_miss_latency::.cpu.data     62279500                       # number of demand (read+write) miss cycles
system.l2.demand_miss_latency::total        102589500                       # number of demand (read+write) miss cycles
system.l2.overall_miss_latency::.cpu.inst     40310000                       # number of overall miss cycles
system.l2.overall_miss_latency::.cpu.data     62279500                       # number of overall miss cycles
system.l2.overall_miss_latency::total       102589500                       # number of overall miss cycles
system.l2.demand_accesses::.cpu.inst              867                       # number of demand (read+write) accesses
system.l2.demand_accesses::.cpu.data             1281                       # number of demand (read+write) accesses
system.l2.demand_accesses::.cpu.icache.prefetcher          376                       # number of demand (read+write) accesses
system.l2.demand_accesses::total                 2524                       # number of demand (read+write) accesses
system.l2.overall_accesses::.cpu.inst             867                       # number of overall (read+write) accesses
system.l2.overall_accesses::.cpu.data            1281                       # number of overall (read+write) accesses
system.l2.overall_accesses::.cpu.icache.prefetcher          376                       # number of overall (read+write) accesses
system.l2.overall_accesses::total                2524                       # number of overall (read+write) accesses
system.l2.demand_miss_rate::.cpu.inst        0.587082                       # miss rate for demand accesses
system.l2.demand_miss_rate::.cpu.data        0.624512                       # miss rate for demand accesses
system.l2.demand_miss_rate::total            0.518621                       # miss rate for demand accesses
system.l2.overall_miss_rate::.cpu.inst       0.587082                       # miss rate for overall accesses
system.l2.overall_miss_rate::.cpu.data       0.624512                       # miss rate for overall accesses
system.l2.overall_miss_rate::total           0.518621                       # miss rate for overall accesses
system.l2.demand_avg_miss_latency::.cpu.inst 79194.499018                       # average overall miss latency
system.l2.demand_avg_miss_latency::.cpu.data 77849.375000                       # average overall miss latency
system.l2.demand_avg_miss_latency::total 78372.421696                       # average overall miss latency
system.l2.overall_avg_miss_latency::.cpu.inst 79194.499018                       # average overall miss latency
system.l2.overall_avg_miss_latency::.cpu.data 77849.375000                       # average overall miss latency
system.l2.overall_avg_miss_latency::total 78372.421696                       # average overall miss latency
system.l2.blocked_cycles::no_mshrs                  0                       # number of cycles access was blocked
system.l2.blocked_cycles::no_targets                0                       # number of cycles access was blocked
system.l2.blocked::no_mshrs                         0                       # number of cycles access was blocked
system.l2.blocked::no_targets                       0                       # number of cycles access was blocked
system.l2.avg_blocked_cycles::no_mshrs            nan                       # average number of cycles each access was blocked
system.l2.avg_blocked_cycles::no_targets          nan                       # average number of cycles each access was blocked
system.l2.demand_mshr_misses::.cpu.inst           509                       # number of demand (read+write) MSHR misses
system.l2.demand_mshr_misses::.cpu.data           800                       # number of demand (read+write) MSHR misses
system.l2.demand_mshr_misses::total              1309                       # number of demand (read+write) MSHR misses
system.l2.overall_mshr_misses::.cpu.inst          509                       # number of overall MSHR misses
system.l2.overall_mshr_misses::.cpu.data          800                       # number of overall MSHR misses
system.l2.overall_mshr_misses::total             1309                       # number of overall MSHR misses
system.l2.demand_mshr_miss_latency::.cpu.inst     35219501                       # number of demand (read+write) MSHR miss cycles
system.l2.demand_mshr_miss_latency::.cpu.data     54279001                       # number of demand (read+write) MSHR miss cycles
system.l2.demand_mshr_miss_latency::total     89498502                       # number of demand (read+write) MSHR miss cycles
system.l2.overall_mshr_miss_latency::.cpu.inst     35219501                       # number of overall MSHR miss cycles
system.l2.overall_mshr_miss_latency::.cpu.data     54279001                       # number of overall MSHR miss cycles
system.l2.overall_mshr_miss_latency::total     89498502                       # number of overall MSHR miss cycles
system.l2.demand_mshr_miss_rate::.cpu.inst     0.587082                       # mshr miss rate for demand accesses
system.l2.demand_mshr_miss_rate::.cpu.data     0.624512                       # mshr miss rate for demand accesses
system.l2.demand_mshr_miss_rate::total       0.518621                       # mshr miss rate for demand accesses
system.l2.overall_mshr_miss_rate::.cpu.inst     0.587082                       # mshr miss rate for overall accesses
system.l2.overall_mshr_miss_rate::.cpu.data     0.624512                       # mshr miss rate for overall accesses
system.l2.overall_mshr_miss_rate::total      0.518621                       # mshr miss rate for overall accesses
system.l2.demand_avg_mshr_miss_latency::.cpu.inst 69193.518664                       # average overall mshr miss latency
system.l2.demand_avg_mshr_miss_latency::.cpu.data 67848.751250                       # average overall mshr miss latency
system.l2.demand_avg_mshr_miss_latency::total 68371.659282                       # average overall mshr miss latency
system.l2.overall_avg_mshr_miss_latency::.cpu.inst 69193.518664                       # average overall mshr miss latency
system.l2.overall_avg_mshr_miss_latency::.cpu.data 67848.751250                       # average overall mshr miss latency
system.l2.overall_avg_mshr_miss_latency::total 68371.659282                       # average overall mshr miss latency
system.l2.replacements                              0                       # number of replacements
system.l2.WritebackDirty_hits::.writebacks          721                       # number of WritebackDirty hits
system.l2.WritebackDirty_hits::total              721                       # number of WritebackDirty hits
system.l2.WritebackDirty_accesses::.writebacks          721                       # number of WritebackDirty accesses(hits+misses)
system.l2.WritebackDirty_accesses::total          721                       # number of WritebackDirty accesses(hits+misses)
system.l2.WritebackClean_hits::.writebacks         1115                       # number of WritebackClean hits
system.l2.WritebackClean_hits::total             1115                       # number of WritebackClean hits
system.l2.WritebackClean_accesses::.writebacks         1115                       # number of WritebackClean accesses(hits+misses)
system.l2.WritebackClean_accesses::total         1115                       # number of WritebackClean accesses(hits+misses)
system.l2.ReadExReq_hits::.cpu.data               207                       # number of ReadExReq hits
system.l2.ReadExReq_hits::total                   207                       # number of ReadExReq hits
system.l2.ReadExReq_misses::.cpu.data             698                       # number of ReadExReq misses
system.l2.ReadExReq_misses::total                 698                       # number of ReadExReq misses
system.l2.ReadExReq_miss_latency::.cpu.data     53484500                       # number of ReadExReq miss cycles
system.l2.ReadExReq_miss_latency::total      53484500                       # number of ReadExReq miss cycles
system.l2.ReadExReq_accesses::.cpu.data           905                       # number of ReadExReq accesses(hits+misses)
system.l2.ReadExReq_accesses::total               905                       # number of ReadExReq accesses(hits+misses)
system.l2.ReadExReq_miss_rate::.cpu.data     0.771271                       # miss rate for ReadExReq accesses
system.l2.ReadExReq_miss_rate::total         0.771271                       # miss rate for ReadExReq accesses
system.l2.ReadExReq_avg_miss_latency::.cpu.data 76625.358166                       # average ReadExReq miss latency
system.l2.ReadExReq_avg_miss_latency::total 76625.358166                       # average ReadExReq miss latency
system.l2.ReadExReq_mshr_misses::.cpu.data          698                       # number of ReadExReq MSHR misses
system.l2.ReadExReq_mshr_misses::total            698                       # number of ReadExReq MSHR misses
system.l2.ReadExReq_mshr_miss_latency::.cpu.data     46504001                       # number of ReadExReq MSHR miss cycles
system.l2.ReadExReq_mshr_miss_latency::total     46504001                       # number of ReadExReq MSHR miss cycles
system.l2.ReadExReq_mshr_miss_rate::.cpu.data     0.771271                       # mshr miss rate for ReadExReq accesses
system.l2.ReadExReq_mshr_miss_rate::total     0.771271                       # mshr miss rate for ReadExReq accesses
system.l2.ReadExReq_avg_mshr_miss_latency::.cpu.data 66624.643266                       # average ReadExReq mshr miss latency
system.l2.ReadExReq_avg_mshr_miss_latency::total 66624.643266                       # average ReadExReq mshr miss latency
system.l2.ReadCleanReq_hits::.cpu.inst            358                       # number of ReadCleanReq hits
system.l2.ReadCleanReq_hits::.cpu.icache.prefetcher          376                       # number of ReadCleanReq hits
system.l2.ReadCleanReq_hits::total                734                       # number of ReadCleanReq hits
system.l2.ReadCleanReq_misses::.cpu.inst          509                       # number of ReadCleanReq misses
system.l2.ReadCleanReq_misses::total              509                       # number of ReadCleanReq misses
system.l2.ReadCleanReq_miss_latency::.cpu.inst     40310000                       # number of ReadCleanReq miss cycles
system.l2.ReadCleanReq_miss_latency::total     40310000                       # number of ReadCleanReq miss cycles
system.l2.ReadCleanReq_accesses::.cpu.inst          867                       # number of ReadCleanReq accesses(hits+misses)
system.l2.ReadCleanReq_accesses::.cpu.icache.prefetcher          376                       # number of ReadCleanReq accesses(hits+misses)
system.l2.ReadCleanReq_accesses::total           1243                       # number of ReadCleanReq accesses(hits+misses)
system.l2.ReadCleanReq_miss_rate::.cpu.inst     0.587082                       # miss rate for ReadCleanReq accesses
[...]
system.cpu.icache.tags.data_accesses            87003                       # Number of data accesses
system.cpu.icache.tags.power_state.pwrStateResidencyTicks::UNDEFINED    153275000                       # Cumulative time (in ticks) in various power states
system.cpu.dtb.walker.power_state.pwrStateResidencyTicks::UNDEFINED    153275000                       # Cumulative time (in ticks) in various power states
system.cpu.dtb.stage2_mmu.stage2_tlb.walker.power_state.pwrStateResidencyTicks::UNDEFINED    153275000                       # Cumulative time (in ticks) in various power states
system.cpu.itb.walker.power_state.pwrStateResidencyTicks::UNDEFINED    153275000                       # Cumulative time (in ticks) in various power states
system.cpu.itb.stage2_mmu.stage2_tlb.walker.power_state.pwrStateResidencyTicks::UNDEFINED    153275000                       # Cumulative time (in ticks) in various power states
system.cpu.dcache.demand_hits::.cpu.data       358263                       # number of demand (read+write) hits
system.cpu.dcache.demand_hits::total           358263                       # number of demand (read+write) hits
system.cpu.dcache.overall_hits::.cpu.data       358285                       # number of overall hits
system.cpu.dcache.overall_hits::total          358285                       # number of overall hits
system.cpu.dcache.demand_misses::.cpu.data        11184                       # number of demand (read+write) misses
system.cpu.dcache.demand_misses::total          11184                       # number of demand (read+write) misses
system.cpu.dcache.overall_misses::.cpu.data        11186                       # number of overall misses
system.cpu.dcache.overall_misses::total         11186                       # number of overall misses
system.cpu.dcache.demand_miss_latency::.cpu.data    565158986                       # number of demand (read+write) miss cycles
system.cpu.dcache.demand_miss_latency::total    565158986                       # number of demand (read+write) miss cycles
system.cpu.dcache.overall_miss_latency::.cpu.data    565158986                       # number of overall miss cycles
system.cpu.dcache.overall_miss_latency::total    565158986                       # number of overall miss cycles
system.cpu.dcache.demand_accesses::.cpu.data       369447                       # number of demand (read+write) accesses
system.cpu.dcache.demand_accesses::total       369447                       # number of demand (read+write) accesses
system.cpu.dcache.overall_accesses::.cpu.data       369471                       # number of overall (read+write) accesses
system.cpu.dcache.overall_accesses::total       369471                       # number of overall (read+write) accesses
system.cpu.dcache.demand_miss_rate::.cpu.data     0.030272                       # miss rate for demand accesses
system.cpu.dcache.demand_miss_rate::total     0.030272                       # miss rate for demand accesses
system.cpu.dcache.overall_miss_rate::.cpu.data     0.030276                       # miss rate for overall accesses
system.cpu.dcache.overall_miss_rate::total     0.030276                       # miss rate for overall accesses
system.cpu.dcache.demand_avg_miss_latency::.cpu.data 50532.813484                       # average overall miss latency
system.cpu.dcache.demand_avg_miss_latency::total 50532.813484                       # average overall miss latency
system.cpu.dcache.overall_avg_miss_latency::.cpu.data 50523.778473                       # average overall miss latency
system.cpu.dcache.overall_avg_miss_latency::total 50523.778473                       # average overall miss latency
system.cpu.dcache.blocked_cycles::no_mshrs        11873                       # number of cycles access was blocked
system.cpu.dcache.blocked_cycles::no_targets            0                       # number of cycles access was blocked
system.cpu.dcache.blocked::no_mshrs               619                       # number of cycles access was blocked
system.cpu.dcache.blocked::no_targets               0                       # number of cycles access was blocked
system.cpu.dcache.avg_blocked_cycles::no_mshrs    19.180937                       # average number of cycles each access was blocked
system.cpu.dcache.avg_blocked_cycles::no_targets          nan                       # average number of cycles each access was blocked
system.cpu.dcache.writebacks::.writebacks          721                       # number of writebacks
system.cpu.dcache.writebacks::total               721                       # number of writebacks
system.cpu.dcache.demand_mshr_hits::.cpu.data         9359                       # number of demand (read+write) MSHR hits
system.cpu.dcache.demand_mshr_hits::total         9359                       # number of demand (read+write) MSHR hits
system.cpu.dcache.overall_mshr_hits::.cpu.data         9359                       # number of overall MSHR hits
system.cpu.dcache.overall_mshr_hits::total         9359                       # number of overall MSHR hits
system.cpu.dcache.demand_mshr_misses::.cpu.data         1825                       # number of demand (read+write) MSHR misses
system.cpu.dcache.demand_mshr_misses::total         1825                       # number of demand (read+write) MSHR misses
system.cpu.dcache.overall_mshr_misses::.cpu.data         1827                       # number of overall MSHR misses
system.cpu.dcache.overall_mshr_misses::total         1827                       # number of overall MSHR misses
system.cpu.dcache.demand_mshr_miss_latency::.cpu.data     86134558                       # number of demand (read+write) MSHR miss cycles
system.cpu.dcache.demand_mshr_miss_latency::total     86134558                       # number of demand (read+write) MSHR miss cycles
system.cpu.dcache.overall_mshr_miss_latency::.cpu.data     86297558                       # number of overall MSHR miss cycles
system.cpu.dcache.overall_mshr_miss_latency::total     86297558                       # number of overall MSHR miss cycles
system.cpu.dcache.demand_mshr_miss_rate::.cpu.data     0.004940                       # mshr miss rate for demand accesses
system.cpu.dcache.demand_mshr_miss_rate::total     0.004940                       # mshr miss rate for demand accesses
system.cpu.dcache.overall_mshr_miss_rate::.cpu.data     0.004945                       # mshr miss rate for overall accesses
system.cpu.dcache.overall_mshr_miss_rate::total     0.004945                       # mshr miss rate for overall accesses
system.cpu.dcache.demand_avg_mshr_miss_latency::.cpu.data 47197.018082                       # average overall mshr miss latency
system.cpu.dcache.demand_avg_mshr_miss_latency::total 47197.018082                       # average overall mshr miss latency
system.cpu.dcache.overall_avg_mshr_miss_latency::.cpu.data 47234.569239                       # average overall mshr miss latency
system.cpu.dcache.overall_avg_mshr_miss_latency::total 47234.569239                       # average overall mshr miss latency
system.cpu.dcache.replacements                    807                       # number of replacements
system.cpu.dcache.ReadReq_hits::.cpu.data       257107                       # number of ReadReq hits
system.cpu.dcache.ReadReq_hits::total          257107                       # number of ReadReq hits
system.cpu.dcache.ReadReq_misses::.cpu.data          658                       # number of ReadReq misses
system.cpu.dcache.ReadReq_misses::total           658                       # number of ReadReq misses
system.cpu.dcache.ReadReq_miss_latency::.cpu.data     22429500                       # number of ReadReq miss cycles
system.cpu.dcache.ReadReq_miss_latency::total     22429500                       # number of ReadReq miss cycles
system.cpu.dcache.ReadReq_accesses::.cpu.data       257765                       # number of ReadReq accesses(hits+misses)
system.cpu.dcache.ReadReq_accesses::total       257765                       # number of ReadReq accesses(hits+misses)
system.cpu.dcache.ReadReq_miss_rate::.cpu.data     0.002553                       # miss rate for ReadReq accesses
system.cpu.dcache.ReadReq_miss_rate::total     0.002553                       # miss rate for ReadReq accesses
system.cpu.dcache.ReadReq_avg_miss_latency::.cpu.data 34087.386018                       # average ReadReq miss latency
system.cpu.dcache.ReadReq_avg_miss_latency::total 34087.386018                       # average ReadReq miss latency
system.cpu.dcache.ReadReq_mshr_hits::.cpu.data          284                       # number of ReadReq MSHR hits
system.cpu.dcache.ReadReq_mshr_hits::total          284                       # number of ReadReq MSHR hits
system.cpu.dcache.ReadReq_mshr_misses::.cpu.data          374                       # number of ReadReq MSHR misses
system.cpu.dcache.ReadReq_mshr_misses::total          374                       # number of ReadReq MSHR misses
system.cpu.dcache.ReadReq_mshr_miss_latency::.cpu.data     12116500                       # number of ReadReq MSHR miss cycles
system.cpu.dcache.ReadReq_mshr_miss_latency::total     12116500                       # number of ReadReq MSHR miss cycles
system.cpu.dcache.ReadReq_mshr_miss_rate::.cpu.data     0.001451                       # mshr miss rate for ReadReq accesses
system.cpu.dcache.ReadReq_mshr_miss_rate::total     0.001451                       # mshr miss rate for ReadReq accesses
system.cpu.dcache.ReadReq_avg_mshr_miss_latency::.cpu.data 32397.058824                       # average ReadReq mshr miss latency
system.cpu.dcache.ReadReq_avg_mshr_miss_latency::total 32397.058824                       # average ReadReq mshr miss latency
system.cpu.dcache.WriteReq_hits::.cpu.data       101137                       # number of WriteReq hits
system.cpu.dcache.WriteReq_hits::total         101137                       # number of WriteReq hits
system.cpu.dcache.WriteReq_misses::.cpu.data         9981                       # number of WriteReq misses
system.cpu.dcache.WriteReq_misses::total         9981                       # number of WriteReq misses
system.cpu.dcache.WriteReq_miss_latency::.cpu.data    525244924                       # number of WriteReq miss cycles
system.cpu.dcache.WriteReq_miss_latency::total    525244924                       # number of WriteReq miss cycles
system.cpu.dcache.WriteReq_accesses::.cpu.data       111118                       # number of WriteReq accesses(hits+misses)
system.cpu.dcache.WriteReq_accesses::total       111118                       # number of WriteReq accesses(hits+misses)
system.cpu.dcache.WriteReq_miss_rate::.cpu.data     0.089823                       # miss rate for WriteReq accesses
system.cpu.dcache.WriteReq_miss_rate::total     0.089823                       # miss rate for WriteReq accesses
system.cpu.dcache.WriteReq_avg_miss_latency::.cpu.data 52624.478910                       # average WriteReq miss latency
system.cpu.dcache.WriteReq_avg_miss_latency::total 52624.478910                       # average WriteReq miss latency
system.cpu.dcache.WriteReq_mshr_hits::.cpu.data         9075                       # number of WriteReq MSHR hits
system.cpu.dcache.WriteReq_mshr_hits::total         9075                       # number of WriteReq MSHR hits
system.cpu.dcache.WriteReq_mshr_misses::.cpu.data          906                       # number of WriteReq MSHR misses
system.cpu.dcache.WriteReq_mshr_misses::total          906                       # number of WriteReq MSHR misses
system.cpu.dcache.WriteReq_mshr_miss_latency::.cpu.data     57078496                       # number of WriteReq MSHR miss cycles
system.cpu.dcache.WriteReq_mshr_miss_latency::total     57078496                       # number of WriteReq MSHR miss cycles
system.cpu.dcache.WriteReq_mshr_miss_rate::.cpu.data     0.008153                       # mshr miss rate for WriteReq accesses
system.cpu.dcache.WriteReq_mshr_miss_rate::total     0.008153                       # mshr miss rate for WriteReq accesses
system.cpu.dcache.WriteReq_avg_mshr_miss_latency::.cpu.data 63000.547461                       # average WriteReq mshr miss latency
system.cpu.dcache.WriteReq_avg_mshr_miss_latency::total 63000.547461                       # average WriteReq mshr miss latency
system.cpu.dcache.SoftPFReq_hits::.cpu.data           22                       # number of SoftPFReq hits
system.cpu.dcache.SoftPFReq_hits::total            22                       # number of SoftPFReq hits
system.cpu.dcache.SoftPFReq_misses::.cpu.data            2                       # number of SoftPFReq misses
system.cpu.dcache.SoftPFReq_misses::total            2                       # number of SoftPFReq misses
system.cpu.dcache.SoftPFReq_accesses::.cpu.data           24                       # number of SoftPFReq accesses(hits+misses)
system.cpu.dcache.SoftPFReq_accesses::total           24                       # number of SoftPFReq accesses(hits+misses)
system.cpu.dcache.SoftPFReq_miss_rate::.cpu.data     0.083333                       # miss rate for SoftPFReq accesses
system.cpu.dcache.SoftPFReq_miss_rate::total     0.083333                       # miss rate for SoftPFReq accesses
system.cpu.dcache.SoftPFReq_mshr_misses::.cpu.data            2                       # number of SoftPFReq MSHR misses
system.cpu.dcache.SoftPFReq_mshr_misses::total            2                       # number of SoftPFReq MSHR misses
system.cpu.dcache.SoftPFReq_mshr_miss_latency::.cpu.data       163000                       # number of SoftPFReq MSHR miss cycles
system.cpu.dcache.SoftPFReq_mshr_miss_latency::total       163000                       # number of SoftPFReq MSHR miss cycles
system.cpu.dcache.SoftPFReq_mshr_miss_rate::.cpu.data     0.083333                       # mshr miss rate for SoftPFReq accesses
system.cpu.dcache.SoftPFReq_mshr_miss_rate::total     0.083333                       # mshr miss rate for SoftPFReq accesses
system.cpu.dcache.SoftPFReq_avg_mshr_miss_latency::.cpu.data        81500                       # average SoftPFReq mshr miss latency
system.cpu.dcache.SoftPFReq_avg_mshr_miss_latency::total        81500                       # average SoftPFReq mshr miss latency
system.cpu.dcache.WriteLineReq_hits::.cpu.data           19                       # number of WriteLineReq hits
system.cpu.dcache.WriteLineReq_hits::total           19                       # number of WriteLineReq hits
system.cpu.dcache.WriteLineReq_misses::.cpu.data          545                       # number of WriteLineReq misses
system.cpu.dcache.WriteLineReq_misses::total          545                       # number of WriteLineReq misses
system.cpu.dcache.WriteLineReq_miss_latency::.cpu.data     17484562                       # number of WriteLineReq miss cycles
system.cpu.dcache.WriteLineReq_miss_latency::total     17484562                       # number of WriteLineReq miss cycles
system.cpu.dcache.WriteLineReq_accesses::.cpu.data          564                       # number of WriteLineReq accesses(hits+misses)
system.cpu.dcache.WriteLineReq_accesses::total          564                       # number of WriteLineReq accesses(hits+misses)
system.cpu.dcache.WriteLineReq_miss_rate::.cpu.data     0.966312                       # miss rate for WriteLineReq accesses
system.cpu.dcache.WriteLineReq_miss_rate::total     0.966312                       # miss rate for WriteLineReq accesses
system.cpu.dcache.WriteLineReq_avg_miss_latency::.cpu.data 32081.765138                       # average WriteLineReq miss latency
system.cpu.dcache.WriteLineReq_avg_miss_latency::total 32081.765138                       # average WriteLineReq miss latency
system.cpu.dcache.WriteLineReq_mshr_misses::.cpu.data          545                       # number of WriteLineReq MSHR misses
system.cpu.dcache.WriteLineReq_mshr_misses::total          545                       # number of WriteLineReq MSHR misses
system.cpu.dcache.WriteLineReq_mshr_miss_latency::.cpu.data     16939562                       # number of WriteLineReq MSHR miss cycles
system.cpu.dcache.WriteLineReq_mshr_miss_latency::total     16939562                       # number of WriteLineReq MSHR miss cycles
system.cpu.dcache.WriteLineReq_mshr_miss_rate::.cpu.data     0.966312                       # mshr miss rate for WriteLineReq accesses
system.cpu.dcache.WriteLineReq_mshr_miss_rate::total     0.966312                       # mshr miss rate for WriteLineReq accesses
system.cpu.dcache.WriteLineReq_avg_mshr_miss_latency::.cpu.data 31081.765138                       # average WriteLineReq mshr miss latency
system.cpu.dcache.WriteLineReq_avg_mshr_miss_latency::total 31081.765138                       # average WriteLineReq mshr miss latency
system.cpu.dcache.LoadLockedReq_hits::.cpu.data           54                       # number of LoadLockedReq hits
system.cpu.dcache.LoadLockedReq_hits::total           54                       # number of LoadLockedReq hits
system.cpu.dcache.LoadLockedReq_accesses::.cpu.data           54                       # number of LoadLockedReq accesses(hits+misses)
system.cpu.dcache.LoadLockedReq_accesses::total           54                       # number of LoadLockedReq accesses(hits+misses)
system.cpu.dcache.StoreCondReq_hits::.cpu.data           48                       # number of StoreCondReq hits
system.cpu.dcache.StoreCondReq_hits::total           48                       # number of StoreCondReq hits
system.cpu.dcache.StoreCondReq_accesses::.cpu.data           48                       # number of StoreCondReq accesses(hits+misses)
system.cpu.dcache.StoreCondReq_accesses::total           48                       # number of StoreCondReq accesses(hits+misses)
system.cpu.dcache.power_state.pwrStateResidencyTicks::UNDEFINED    153275000                       # Cumulative time (in ticks) in various power states
system.cpu.dcache.tags.tagsinuse           693.573178                       # Cycle average of tags in use
system.cpu.dcache.tags.total_refs              360214                       # Total number of references to valid blocks.
system.cpu.dcache.tags.sampled_refs              1827                       # Sample count of references to valid blocks.
system.cpu.dcache.tags.avg_refs            197.161467                       # Average number of references to valid blocks.
system.cpu.dcache.tags.warmup_cycle            176500                       # Cycle when the warmup percentage was hit.
system.cpu.dcache.tags.occ_blocks::.cpu.data   693.573178                       # Average occupied blocks per requestor
system.cpu.dcache.tags.occ_percent::.cpu.data     0.677318                       # Average percentage of cache occupancy
system.cpu.dcache.tags.occ_percent::total     0.677318                       # Average percentage of cache occupancy
system.cpu.dcache.tags.occ_task_id_blocks::1024         1020                       # Occupied blocks per task id
system.cpu.dcache.tags.age_task_id_blocks_1024::0           63                       # Occupied blocks per task id
system.cpu.dcache.tags.age_task_id_blocks_1024::1          540                       # Occupied blocks per task id
system.cpu.dcache.tags.age_task_id_blocks_1024::2          417                       # Occupied blocks per task id
system.cpu.dcache.tags.occ_task_id_percent::1024     0.996094                       # Percentage of cache occupancy per task id
system.cpu.dcache.tags.tag_accesses            740973                       # Number of tag accesses
system.cpu.dcache.tags.data_accesses           740973                       # Number of data accesses
system.cpu.dcache.tags.power_state.pwrStateResidencyTicks::UNDEFINED    153275000                       # Cumulative time (in ticks) in various power states
system.cpu.power_state.pwrStateResidencyTicks::ON    153275000                       # Cumulative time (in ticks) in various power states

---------- End Simulation Statistics   ----------
