
---------- Begin Simulation Statistics ----------
final_tick                                 3975991000                       # Number of ticks from beginning of simulation (restored from checkpoints and never reset)
host_inst_rate                                 105145                       # Simulator instruction rate (inst/s)
host_mem_usage                                 894384                       # Number of bytes of host memory used
host_op_rate                                   119631                       # Simulator op (including micro ops) rate (op/s)
host_seconds                                    95.11                       # Real time elapsed on the host
host_tick_rate                               41805430                       # Simulator tick rate (ticks/s)
sim_freq                                 1000000000000                       # Frequency of simulated ticks
sim_insts                                    10000007                       # Number of instructions simulated
sim_ops                                      11377760                       # Number of ops (including micro ops) simulated
sim_seconds                                  0.003976                       # Number of seconds simulated
sim_ticks                                  3975991000                       # Number of ticks simulated
system.cpu.branchPred.BTBCorrect                    0                       # Number of correct BTB predictions (this stat may not work properly.
system.cpu.branchPred.BTBHitPct             99.826540                       # BTB Hit Percentage
system.cpu.branchPred.BTBHits                 1031876                       # Number of BTB hits
system.cpu.branchPred.BTBLookups              1033669                       # Number of BTB lookups
system.cpu.branchPred.RASInCorrect                  2                       # Number of incorrect RAS predictions.
system.cpu.branchPred.condIncorrect             33671                       # Number of conditional branches incorrect
system.cpu.branchPred.condPredicted           1501142                       # Number of conditional branches predicted
system.cpu.branchPred.indirectHits                 82                       # Number of indirect target hits.
system.cpu.branchPred.indirectLookups             414                       # Number of indirect predictor lookups.
system.cpu.branchPred.indirectMisses              332                       # Number of indirect misses.
system.cpu.branchPred.lookups                 1868660                       # Number of BP lookups
system.cpu.branchPred.usedRAS                  156085                       # Number of times the RAS was used to get a target.
system.cpu.branchPredindirectMispredicted           94                       # Number of mispredicted indirect branches.
system.cpu.cc_regfile_reads                   2991921                       # number of cc regfile reads
system.cpu.cc_regfile_writes                  3000004                       # number of cc regfile writes
system.cpu.commit.amos                              0                       # Number of atomic instructions committed
system.cpu.commit.branchMispredicts             33230                       # The number of times a branch was mispredicted
system.cpu.commit.branches                    1493731                       # Number of branches committed
system.cpu.commit.bw_lim_events                899731                       # number cycles where commit BW limit reached
system.cpu.commit.commitNonSpecStalls             162                       # The number of times commit has been forced to stall to communicate backwards
system.cpu.commit.commitSquashedInsts         1885001                       # The number of squashed insts skipped by commit
system.cpu.commit.committedInsts             10030363                       # Number of instructions committed
system.cpu.commit.committedOps               11408116                       # Number of ops (including micro ops) committed
system.cpu.commit.committed_per_cycle::samples      7594515                       # Number of insts commited each cycle
system.cpu.commit.committed_per_cycle::mean     1.502152                       # Number of insts commited each cycle
system.cpu.commit.committed_per_cycle::stdev     2.707924                       # Number of insts commited each cycle
system.cpu.commit.committed_per_cycle::underflows            0      0.00%      0.00% # Number of insts commited each cycle
system.cpu.commit.committed_per_cycle::0      4937558     65.01%     65.01% # Number of insts commited each cycle
system.cpu.commit.committed_per_cycle::1       831393     10.95%     75.96% # Number of insts commited each cycle
system.cpu.commit.committed_per_cycle::2       260602      3.43%     79.39% # Number of insts commited each cycle
system.cpu.commit.committed_per_cycle::3       229818      3.03%     82.42% # Number of insts commited each cycle
system.cpu.commit.committed_per_cycle::4       200125      2.64%     85.05% # Number of insts commited each cycle
system.cpu.commit.committed_per_cycle::5       100511      1.32%     86.38% # Number of insts commited each cycle
system.cpu.commit.committed_per_cycle::6        78277      1.03%     87.41% # Number of insts commited each cycle
system.cpu.commit.committed_per_cycle::7        56500      0.74%     88.15% # Number of insts commited each cycle
system.cpu.commit.committed_per_cycle::8       899731     11.85%    100.00% # Number of insts commited each cycle
system.cpu.commit.committed_per_cycle::overflows            0      0.00%    100.00% # Number of insts commited each cycle
system.cpu.commit.committed_per_cycle::min_value            0                       # Number of insts commited each cycle
system.cpu.commit.committed_per_cycle::max_value            8                       # Number of insts commited each cycle
system.cpu.commit.committed_per_cycle::total      7594515                       # Number of insts commited each cycle
system.cpu.commit.fp_insts                          0                       # Number of committed floating point instructions.
system.cpu.commit.function_calls               109864                       # Number of function calls committed.
system.cpu.commit.int_insts                  10459677                       # Number of committed integer instructions.
system.cpu.commit.loads                       2765064                       # Number of loads committed
system.cpu.commit.membars                          71                       # Number of memory barriers committed
system.cpu.commit.op_class_0::No_OpClass            4      0.00%      0.00% # Class of committed instruction
system.cpu.commit.op_class_0::IntAlu          6770582     59.35%     59.35% # Class of committed instruction
system.cpu.commit.op_class_0::IntMult          207714      1.82%     61.17% # Class of committed instruction
system.cpu.commit.op_class_0::IntDiv                3      0.00%     61.17% # Class of committed instruction
system.cpu.commit.op_class_0::FloatAdd          20205      0.18%     61.35% # Class of committed instruction
system.cpu.commit.op_class_0::FloatCmp              1      0.00%     61.35% # Class of committed instruction
system.cpu.commit.op_class_0::FloatCvt          37098      0.33%     61.67% # Class of committed instruction
system.cpu.commit.op_class_0::FloatMult            10      0.00%     61.67% # Class of committed instruction
system.cpu.commit.op_class_0::FloatMultAcc           17      0.00%     61.67% # Class of committed instruction
system.cpu.commit.op_class_0::FloatDiv           3316      0.03%     61.70% # Class of committed instruction
system.cpu.commit.op_class_0::FloatMisc         20209      0.18%     61.88% # Class of committed instruction
system.cpu.commit.op_class_0::FloatSqrt             0      0.00%     61.88% # Class of committed instruction
system.cpu.commit.op_class_0::SimdAdd              18      0.00%     61.88% # Class of committed instruction
system.cpu.commit.op_class_0::SimdAddAcc            0      0.00%     61.88% # Class of committed instruction
system.cpu.commit.op_class_0::SimdAlu              18      0.00%     61.88% # Class of committed instruction
system.cpu.commit.op_class_0::SimdCmp              16      0.00%     61.88% # Class of committed instruction
system.cpu.commit.op_class_0::SimdCvt               4      0.00%     61.88% # Class of committed instruction
system.cpu.commit.op_class_0::SimdMisc             16      0.00%     61.88% # Class of committed instruction
system.cpu.commit.op_class_0::SimdMult              0      0.00%     61.88% # Class of committed instruction
system.cpu.commit.op_class_0::SimdMultAcc            0      0.00%     61.88% # Class of committed instruction
system.cpu.commit.op_class_0::SimdShift             0      0.00%     61.88% # Class of committed instruction
system.cpu.commit.op_class_0::SimdShiftAcc            0      0.00%     61.88% # Class of committed instruction
system.cpu.commit.op_class_0::SimdDiv               0      0.00%     61.88% # Class of committed instruction
system.cpu.commit.op_class_0::SimdSqrt              0      0.00%     61.88% # Class of committed instruction
system.cpu.commit.op_class_0::SimdFloatAdd            0      0.00%     61.88% # Class of committed instruction
system.cpu.commit.op_class_0::SimdFloatAlu            0      0.00%     61.88% # Class of committed instruction
system.cpu.commit.op_class_0::SimdFloatCmp            0      0.00%     61.88% # Class of committed instruction
system.cpu.commit.op_class_0::SimdFloatCvt            0      0.00%     61.88% # Class of committed instruction
system.cpu.commit.op_class_0::SimdFloatDiv            0      0.00%     61.88% # Class of committed instruction
system.cpu.commit.op_class_0::SimdFloatMisc            0      0.00%     61.88% # Class of committed instruction
system.cpu.commit.op_class_0::SimdFloatMult            0      0.00%     61.88% # Class of committed instruction
system.cpu.commit.op_class_0::SimdFloatMultAcc            0      0.00%     61.88% # Class of committed instruction
system.cpu.commit.op_class_0::SimdFloatSqrt            0      0.00%     61.88% # Class of committed instruction
system.cpu.commit.op_class_0::SimdReduceAdd            0      0.00%     61.88% # Class of committed instruction
system.cpu.commit.op_class_0::SimdReduceAlu            0      0.00%     61.88% # Class of committed instruction
system.cpu.commit.op_class_0::SimdReduceCmp            0      0.00%     61.88% # Class of committed instruction
system.cpu.commit.op_class_0::SimdFloatReduceAdd            0      0.00%     61.88% # Class of committed instruction
system.cpu.commit.op_class_0::SimdFloatReduceCmp            0      0.00%     61.88% # Class of committed instruction
system.cpu.commit.op_class_0::SimdAes               0      0.00%     61.88% # Class of committed instruction
system.cpu.commit.op_class_0::SimdAesMix            0      0.00%     61.88% # Class of committed instruction
system.cpu.commit.op_class_0::SimdSha1Hash            0      0.00%     61.88% # Class of committed instruction
system.cpu.commit.op_class_0::SimdSha1Hash2            0      0.00%     61.88% # Class of committed instruction
system.cpu.commit.op_class_0::SimdSha256Hash            0      0.00%     61.88% # Class of committed instruction
system.cpu.commit.op_class_0::SimdSha256Hash2            0      0.00%     61.88% # Class of committed instruction
system.cpu.commit.op_class_0::SimdShaSigma2            0      0.00%     61.88% # Class of committed instruction
system.cpu.commit.op_class_0::SimdShaSigma3            0      0.00%     61.88% # Class of committed instruction
system.cpu.commit.op_class_0::SimdPredAlu            0      0.00%     61.88% # Class of committed instruction
system.cpu.commit.op_class_0::MemRead         2765064     24.24%     86.12% # Class of committed instruction
system.cpu.commit.op_class_0::MemWrite        1583821     13.88%    100.00% # Class of committed instruction
system.cpu.commit.op_class_0::FloatMemRead            0      0.00%    100.00% # Class of committed instruction
system.cpu.commit.op_class_0::FloatMemWrite            0      0.00%    100.00% # Class of committed instruction
system.cpu.commit.op_class_0::IprAccess             0      0.00%    100.00% # Class of committed instruction
system.cpu.commit.op_class_0::InstPrefetch            0      0.00%    100.00% # Class of committed instruction
system.cpu.commit.op_class_0::total          11408116                       # Class of committed instruction
system.cpu.commit.refs                        4348885                       # Number of memory references committed
system.cpu.commit.swp_count                         0                       # Number of s/w prefetches committed
system.cpu.commit.vec_insts                     81296                       # Number of committed Vector instructions.
system.cpu.committedInsts                    10000007                       # Number of Instructions Simulated
system.cpu.committedOps                      11377760                       # Number of Ops (including micro ops) Simulated
system.cpu.cpi                               0.795198                       # CPI: Cycles Per Instruction
system.cpu.cpi_total                         0.795198                       # CPI: Total CPI of All Threads
system.cpu.decode.BlockedCycles               4292208                       # Number of cycles decode is blocked
system.cpu.decode.BranchMispred                   455                       # Number of times decode detected a branch misprediction
system.cpu.decode.BranchResolved              1002557                       # Number of times decode resolved a branch
system.cpu.decode.DecodedInsts               13684372                       # Number of instructions handled by decode
system.cpu.decode.IdleCycles                  1270002                       # Number of cycles decode is idle
system.cpu.decode.RunCycles                   2020766                       # Number of cycles decode is running
system.cpu.decode.SquashCycles                  36102                       # Number of cycles decode is squashing
system.cpu.decode.SquashedInsts                  1565                       # Number of squashed instructions handled by decode
system.cpu.decode.UnblockCycles                228077                       # Number of cycles decode is unblocking
system.cpu.dtb.accesses                             0                       # DTB accesses
system.cpu.dtb.align_faults                         0                       # Number of TLB faults due to alignment restrictions
system.cpu.dtb.domain_faults                        0                       # Number of TLB faults due to domain restrictions
system.cpu.dtb.flush_entries                        0                       # Number of entries that have been flushed from TLB
system.cpu.dtb.flush_tlb                            2                       # Number of times complete TLB was flushed
system.cpu.dtb.flush_tlb_asid                       0                       # Number of times TLB was flushed by ASID
system.cpu.dtb.flush_tlb_mva                        0                       # Number of times TLB was flushed by MVA
system.cpu.dtb.flush_tlb_mva_asid                   0                       # Number of times TLB was flushed by MVA & ASID
system.cpu.dtb.hits                                 0                       # DTB hits
system.cpu.dtb.inst_accesses                        0                       # ITB inst accesses
system.cpu.dtb.inst_hits                            0                       # ITB inst hits
system.cpu.dtb.inst_misses                          0                       # ITB inst misses
system.cpu.dtb.misses                               0                       # DTB misses
system.cpu.dtb.perms_faults                         0                       # Number of TLB faults due to permissions restrictions
system.cpu.dtb.prefetch_faults                      0                       # Number of TLB faults due to prefetch
system.cpu.dtb.read_accesses                        0                       # DTB read accesses
system.cpu.dtb.read_hits                            0                       # DTB read hits
system.cpu.dtb.read_misses                          0                       # DTB read misses
system.cpu.dtb.stage2_mmu.stage2_tlb.accesses            0                       # DTB accesses
system.cpu.dtb.stage2_mmu.stage2_tlb.align_faults            0                       # Number of TLB faults due to alignment restrictions
system.cpu.dtb.stage2_mmu.stage2_tlb.domain_faults            0                       # Number of TLB faults due to domain restrictions
system.cpu.dtb.stage2_mmu.stage2_tlb.flush_entries            0                       # Number of entries that have been flushed from TLB
system.cpu.dtb.stage2_mmu.stage2_tlb.flush_tlb            0                       # Number of times complete TLB was flushed
system.cpu.dtb.stage2_mmu.stage2_tlb.flush_tlb_asid            0                       # Number of times TLB was flushed by ASID
system.cpu.dtb.stage2_mmu.stage2_tlb.flush_tlb_mva            0                       # Number of times TLB was flushed by MVA
system.cpu.dtb.stage2_mmu.stage2_tlb.flush_tlb_mva_asid            0                       # Number of times TLB was flushed by MVA & ASID
system.cpu.dtb.stage2_mmu.stage2_tlb.hits            0                       # DTB hits
system.cpu.dtb.stage2_mmu.stage2_tlb.inst_accesses            0                       # ITB inst accesses
system.cpu.dtb.stage2_mmu.stage2_tlb.inst_hits            0                       # ITB inst hits
system.cpu.dtb.stage2_mmu.stage2_tlb.inst_misses            0                       # ITB inst misses
system.cpu.dtb.stage2_mmu.stage2_tlb.misses            0                       # DTB misses
system.cpu.dtb.stage2_mmu.stage2_tlb.perms_faults            0                       # Number of TLB faults due to permissions restrictions
system.cpu.dtb.stage2_mmu.stage2_tlb.prefetch_faults            0                       # Number of TLB faults due to prefetch
system.cpu.dtb.stage2_mmu.stage2_tlb.read_accesses            0                       # DTB read accesses
system.cpu.dtb.stage2_mmu.stage2_tlb.read_hits            0                       # DTB read hits
system.cpu.dtb.stage2_mmu.stage2_tlb.read_misses            0                       # DTB read misses
system.cpu.dtb.stage2_mmu.stage2_tlb.walker.walkRequestOrigin_Requested::Data            0                       # Table walker requests started/completed, data/inst
system.cpu.dtb.stage2_mmu.stage2_tlb.walker.walkRequestOrigin_Requested::Inst            0                       # Table walker requests started/completed, data/inst
system.cpu.dtb.stage2_mmu.stage2_tlb.walker.walkRequestOrigin_Requested::total            0                       # Table walker requests started/completed, data/inst
system.cpu.dtb.stage2_mmu.stage2_tlb.walker.walkRequestOrigin_Completed::Data            0                       # Table walker requests started/completed, data/inst
system.cpu.dtb.stage2_mmu.stage2_tlb.walker.walkRequestOrigin_Completed::Inst            0                       # Table walker requests started/completed, data/inst
system.cpu.dtb.stage2_mmu.stage2_tlb.walker.walkRequestOrigin_Completed::total            0                       # Table walker requests started/completed, data/inst
system.cpu.dtb.stage2_mmu.stage2_tlb.walker.walkRequestOrigin::total            0                       # Table walker requests started/completed, data/inst
system.cpu.dtb.stage2_mmu.stage2_tlb.walker.walks            0                       # Table walker walks requested
system.cpu.dtb.stage2_mmu.stage2_tlb.write_accesses            0                       # DTB write accesses
system.cpu.dtb.stage2_mmu.stage2_tlb.write_hits            0                       # DTB write hits
system.cpu.dtb.stage2_mmu.stage2_tlb.write_misses            0                       # DTB write misses
system.cpu.dtb.walker.walkRequestOrigin_Requested::Data            0                       # Table walker requests started/completed, data/inst
system.cpu.dtb.walker.walkRequestOrigin_Requested::Inst            0                       # Table walker requests started/completed, data/inst
system.cpu.dtb.walker.walkRequestOrigin_Requested::total            0                       # Table walker requests started/completed, data/inst
system.cpu.dtb.walker.walkRequestOrigin_Completed::Data            0                       # Table walker requests started/completed, data/inst
system.cpu.dtb.walker.walkRequestOrigin_Completed::Inst            0                       # Table walker requests started/completed, data/inst
system.cpu.dtb.walker.walkRequestOrigin_Completed::total            0                       # Table walker requests started/completed, data/inst
system.cpu.dtb.walker.walkRequestOrigin::total            0                       # Table walker requests started/completed, data/inst
system.cpu.dtb.walker.walks                         0                       # Table walker walks requested
system.cpu.dtb.write_accesses                       0                       # DTB write accesses
system.cpu.dtb.write_hits                           0                       # DTB write hits
system.cpu.dtb.write_misses                         0                       # DTB write misses
system.cpu.fetch.Branches                     1868660                       # Number of branches that fetch encountered
system.cpu.fetch.CacheLines                   1180886                       # Number of cache lines fetched
system.cpu.fetch.Cycles                       6044824                       # Number of cycles fetch has run and was not squashing or blocked
system.cpu.fetch.IcacheSquashes                 13181                       # Number of outstanding Icache misses that were squashed
system.cpu.fetch.Insts                       12292248                       # Number of instructions fetch has processed
system.cpu.fetch.SquashCycles                   73086                       # Number of cycles fetch has spent squashing
system.cpu.fetch.branchRate                  0.234993                       # Number of branch fetches per cycle
system.cpu.fetch.icacheStallCycles            1765788                       # Number of cycles fetch is stalled on an Icache miss
system.cpu.fetch.predictedBranches            1188043                       # Number of branches that fetch has predicted taken
system.cpu.fetch.rate                        1.545809                       # Number of inst fetches per cycle
system.cpu.fetch.rateDist::samples            7847155                       # Number of instructions fetched each cycle (Total)
system.cpu.fetch.rateDist::mean              1.785247                       # Number of instructions fetched each cycle (Total)
system.cpu.fetch.rateDist::stdev             2.937908                       # Number of instructions fetched each cycle (Total)
system.cpu.fetch.rateDist::underflows               0      0.00%      0.00% # Number of instructions fetched each cycle (Total)
system.cpu.fetch.rateDist::0                  5148161     65.61%     65.61% # Number of instructions fetched each cycle (Total)
system.cpu.fetch.rateDist::1                   240733      3.07%     68.67% # Number of instructions fetched each cycle (Total)
system.cpu.fetch.rateDist::2                   482640      6.15%     74.82% # Number of instructions fetched each cycle (Total)
system.cpu.fetch.rateDist::3                   272118      3.47%     78.29% # Number of instructions fetched each cycle (Total)
system.cpu.fetch.rateDist::4                   207942      2.65%     80.94% # Number of instructions fetched each cycle (Total)
system.cpu.fetch.rateDist::5                   171816      2.19%     83.13% # Number of instructions fetched each cycle (Total)
system.cpu.fetch.rateDist::6                    94681      1.21%     84.34% # Number of instructions fetched each cycle (Total)
system.cpu.fetch.rateDist::7                   104704      1.33%     85.67% # Number of instructions fetched each cycle (Total)
system.cpu.fetch.rateDist::8                  1124360     14.33%    100.00% # Number of instructions fetched each cycle (Total)
system.cpu.fetch.rateDist::overflows                0      0.00%    100.00% # Number of instructions fetched each cycle (Total)
system.cpu.fetch.rateDist::min_value                0                       # Number of instructions fetched each cycle (Total)
system.cpu.fetch.rateDist::max_value                8                       # Number of instructions fetched each cycle (Total)
system.cpu.fetch.rateDist::total              7847155                       # Number of instructions fetched each cycle (Total)
system.cpu.icache.prefetcher.num_hwpf_issued       128185                       # number of hwpf issued
system.cpu.icache.prefetcher.pfBufferHit       532256                       # number of redundant prefetches already in prefetch queue
system.cpu.icache.prefetcher.pfIdentified      1002100                       # number of prefetch candidates identified
system.cpu.icache.prefetcher.pfInCache              0                       # number of redundant prefetches already in cache/mshr dropped
system.cpu.icache.prefetcher.pfRemovedFull           59                       # number of prefetches dropped due to prefetch queue size
system.cpu.icache.prefetcher.pfSpanPage       9325644                       # number of prefetches that crossed the page
system.cpu.idleCycles                          104828                       # Total number of cycles that the CPU has spent unscheduled due to idling
system.cpu.iew.branchMispredicts                35435                       # Number of branch mispredicts detected at execute
system.cpu.iew.exec_branches                  1633666                       # Number of branches executed
system.cpu.iew.exec_nop                         38466                       # number of nop insts executed
system.cpu.iew.exec_rate                     1.591662                       # Inst execution rate
system.cpu.iew.exec_refs                      4891864                       # number of memory reference insts executed
system.cpu.iew.exec_stores                    1733409                       # Number of stores executed
system.cpu.iew.exec_swp                             0                       # number of swp insts executed
system.cpu.iew.iewBlockCycles                  322060                       # Number of cycles IEW is blocking
system.cpu.iew.iewDispLoadInsts               3245836                       # Number of dispatched load instructions
system.cpu.iew.iewDispNonSpecInsts                195                       # Number of dispatched non-speculative instructions
system.cpu.iew.iewDispSquashedInsts              1080                       # Number of squashed instructions skipped by dispatch
system.cpu.iew.iewDispStoreInsts              1825502                       # Number of dispatched store instructions
system.cpu.iew.iewDispatchedInsts            13332620                       # Number of instructions dispatched to IQ
system.cpu.iew.iewExecLoadInsts               3158455                       # Number of load instructions executed
system.cpu.iew.iewExecSquashedInsts             55673                       # Number of squashed instructions skipped in execute
system.cpu.iew.iewExecutedInsts              12656869                       # Number of executed instructions
system.cpu.iew.iewIQFullEvents                   2167                       # Number of times the IQ has become full, causing a stall
system.cpu.iew.iewIdleCycles                        0                       # Number of cycles IEW is idle
system.cpu.iew.iewLSQFullEvents                289551                       # Number of times the LSQ has become full, causing a stall
system.cpu.iew.iewSquashCycles                  36102                       # Number of cycles IEW is squashing
system.cpu.iew.iewUnblockCycles                292069                       # Number of cycles IEW is unblocking
system.cpu.iew.lsq.thread0.blockedLoads             0                       # Number of blocked loads due to partial load-store forwarding
system.cpu.iew.lsq.thread0.cacheBlocked          2720                       # Number of times an access to memory failed due to the cache being blocked
system.cpu.iew.lsq.thread0.forwLoads            33727                       # Number of loads that had data forwarded from stores
system.cpu.iew.lsq.thread0.ignoredResponses          115                       # Number of memory responses ignored because the instruction is squashed
system.cpu.iew.lsq.thread0.invAddrLoads             0                       # Number of loads ignored due to an invalid address
system.cpu.iew.lsq.thread0.invAddrSwpfs             0                       # Number of software prefetches ignored due to an invalid address
system.cpu.iew.lsq.thread0.memOrderViolation          171                       # Number of memory ordering violations
system.cpu.iew.lsq.thread0.rescheduledLoads       162735                       # Number of loads that were rescheduled
system.cpu.iew.lsq.thread0.squashedLoads       480764                       # Number of loads squashed
system.cpu.iew.lsq.thread0.squashedStores       241678                       # Number of stores squashed
system.cpu.iew.memOrderViolationEvents            171                       # Number of memory order violations
system.cpu.iew.predictedNotTakenIncorrect        16767                       # Number of branches that were predicted not taken incorrectly
system.cpu.iew.predictedTakenIncorrect          18668                       # Number of branches that were predicted taken incorrectly
system.cpu.iew.wb_consumers                  12891624                       # num instructions consuming a value
system.cpu.iew.wb_count                      12433902                       # cumulative count of insts written-back
system.cpu.iew.wb_fanout                     0.603510                       # average fanout of values written-back
system.cpu.iew.wb_producers                   7780221                       # num instructions producing a value
system.cpu.iew.wb_rate                       1.563623                       # insts written-back per cycle
system.cpu.iew.wb_sent                       12474918                       # cumulative count of insts sent to commit
system.cpu.int_regfile_reads                 16497890                       # number of integer regfile reads
system.cpu.int_regfile_writes                 9611163                       # number of integer regfile writes
system.cpu.ipc                               1.257549                       # IPC: Instructions Per Cycle
system.cpu.ipc_total                         1.257549                       # IPC: Total IPC of All Threads
system.cpu.iq.FU_type_0::No_OpClass                 6      0.00%      0.00% # Type of FU issued
system.cpu.iq.FU_type_0::IntAlu               7438929     58.52%     58.52% # Type of FU issued
system.cpu.iq.FU_type_0::IntMult               243274      1.91%     60.43% # Type of FU issued
system.cpu.iq.FU_type_0::IntDiv                     3      0.00%     60.43% # Type of FU issued
system.cpu.iq.FU_type_0::FloatAdd               25962      0.20%     60.63% # Type of FU issued
system.cpu.iq.FU_type_0::FloatCmp                   1      0.00%     60.63% # Type of FU issued
system.cpu.iq.FU_type_0::FloatCvt               44669      0.35%     60.99% # Type of FU issued
system.cpu.iq.FU_type_0::FloatMult                 10      0.00%     60.99% # Type of FU issued
system.cpu.iq.FU_type_0::FloatMultAcc              17      0.00%     60.99% # Type of FU issued
system.cpu.iq.FU_type_0::FloatDiv                4183      0.03%     61.02% # Type of FU issued
system.cpu.iq.FU_type_0::FloatMisc              31919      0.25%     61.27% # Type of FU issued
system.cpu.iq.FU_type_0::FloatSqrt                  0      0.00%     61.27% # Type of FU issued
system.cpu.iq.FU_type_0::SimdAdd                   24      0.00%     61.27% # Type of FU issued
system.cpu.iq.FU_type_0::SimdAddAcc                 0      0.00%     61.27% # Type of FU issued
system.cpu.iq.FU_type_0::SimdAlu                   22      0.00%     61.27% # Type of FU issued
system.cpu.iq.FU_type_0::SimdCmp                   23      0.00%     61.27% # Type of FU issued
system.cpu.iq.FU_type_0::SimdCvt                    4      0.00%     61.27% # Type of FU issued
system.cpu.iq.FU_type_0::SimdMisc                  18      0.00%     61.27% # Type of FU issued
system.cpu.iq.FU_type_0::SimdMult                   0      0.00%     61.27% # Type of FU issued
system.cpu.iq.FU_type_0::SimdMultAcc                0      0.00%     61.27% # Type of FU issued
system.cpu.iq.FU_type_0::SimdShift                  0      0.00%     61.27% # Type of FU issued
system.cpu.iq.FU_type_0::SimdShiftAcc               0      0.00%     61.27% # Type of FU issued
system.cpu.iq.FU_type_0::SimdDiv                    0      0.00%     61.27% # Type of FU issued
system.cpu.iq.FU_type_0::SimdSqrt                   0      0.00%     61.27% # Type of FU issued
system.cpu.iq.FU_type_0::SimdFloatAdd               0      0.00%     61.27% # Type of FU issued
system.cpu.iq.FU_type_0::SimdFloatAlu               0      0.00%     61.27% # Type of FU issued
system.cpu.iq.FU_type_0::SimdFloatCmp               0      0.00%     61.27% # Type of FU issued
system.cpu.iq.FU_type_0::SimdFloatCvt               0      0.00%     61.27% # Type of FU issued
system.cpu.iq.FU_type_0::SimdFloatDiv               0      0.00%     61.27% # Type of FU issued
system.cpu.iq.FU_type_0::SimdFloatMisc              0      0.00%     61.27% # Type of FU issued
system.cpu.iq.FU_type_0::SimdFloatMult              0      0.00%     61.27% # Type of FU issued
system.cpu.iq.FU_type_0::SimdFloatMultAcc            0      0.00%     61.27% # Type of FU issued
system.cpu.iq.FU_type_0::SimdFloatSqrt              0      0.00%     61.27% # Type of FU issued
system.cpu.iq.FU_type_0::SimdReduceAdd              0      0.00%     61.27% # Type of FU issued
system.cpu.iq.FU_type_0::SimdReduceAlu              0      0.00%     61.27% # Type of FU issued
system.cpu.iq.FU_type_0::SimdReduceCmp              0      0.00%     61.27% # Type of FU issued
system.cpu.iq.FU_type_0::SimdFloatReduceAdd            0      0.00%     61.27% # Type of FU issued
system.cpu.iq.FU_type_0::SimdFloatReduceCmp            0      0.00%     61.27% # Type of FU issued
system.cpu.iq.FU_type_0::SimdAes                    0      0.00%     61.27% # Type of FU issued
system.cpu.iq.FU_type_0::SimdAesMix                 0      0.00%     61.27% # Type of FU issued
system.cpu.iq.FU_type_0::SimdSha1Hash               0      0.00%     61.27% # Type of FU issued
system.cpu.iq.FU_type_0::SimdSha1Hash2              0      0.00%     61.27% # Type of FU issued
system.cpu.iq.FU_type_0::SimdSha256Hash             0      0.00%     61.27% # Type of FU issued
system.cpu.iq.FU_type_0::SimdSha256Hash2            0      0.00%     61.27% # Type of FU issued
system.cpu.iq.FU_type_0::SimdShaSigma2              0      0.00%     61.27% # Type of FU issued
system.cpu.iq.FU_type_0::SimdShaSigma3              0      0.00%     61.27% # Type of FU issued
system.cpu.iq.FU_type_0::SimdPredAlu                0      0.00%     61.27% # Type of FU issued
system.cpu.iq.FU_type_0::MemRead              3181766     25.03%     86.30% # Type of FU issued
system.cpu.iq.FU_type_0::MemWrite             1741716     13.70%    100.00% # Type of FU issued
system.cpu.iq.FU_type_0::FloatMemRead               0      0.00%    100.00% # Type of FU issued
system.cpu.iq.FU_type_0::FloatMemWrite              0      0.00%    100.00% # Type of FU issued
system.cpu.iq.FU_type_0::IprAccess                  0      0.00%    100.00% # Type of FU issued
system.cpu.iq.FU_type_0::InstPrefetch               0      0.00%    100.00% # Type of FU issued
system.cpu.iq.FU_type_0::total               12712546                       # Type of FU issued
system.cpu.iq.fp_alu_accesses                       0                       # Number of floating point alu accesses
system.cpu.iq.fp_inst_queue_reads                   0                       # Number of floating instruction queue reads
system.cpu.iq.fp_inst_queue_wakeup_accesses            0                       # Number of floating instruction queue wakeup accesses
system.cpu.iq.fp_inst_queue_writes                  0                       # Number of floating instruction queue writes
system.cpu.iq.fu_busy_cnt                      216860                       # FU busy when requested
system.cpu.iq.fu_busy_rate                   0.017059                       # FU busy rate (busy events/executed inst)
system.cpu.iq.fu_full::No_OpClass                   0      0.00%      0.00% # attempts to use FU when none available
system.cpu.iq.fu_full::IntAlu                   52248     24.09%     24.09% # attempts to use FU when none available
system.cpu.iq.fu_full::IntMult                     76      0.04%     24.13% # attempts to use FU when none available
system.cpu.iq.fu_full::IntDiv                       0      0.00%     24.13% # attempts to use FU when none available
system.cpu.iq.fu_full::FloatAdd                     0      0.00%     24.13% # attempts to use FU when none available
system.cpu.iq.fu_full::FloatCmp                     0      0.00%     24.13% # attempts to use FU when none available
system.cpu.iq.fu_full::FloatCvt                     0      0.00%     24.13% # attempts to use FU when none available
system.cpu.iq.fu_full::FloatMult                   16      0.01%     24.14% # attempts to use FU when none available
system.cpu.iq.fu_full::FloatMultAcc                 0      0.00%     24.14% # attempts to use FU when none available
system.cpu.iq.fu_full::FloatDiv                    22      0.01%     24.15% # attempts to use FU when none available
system.cpu.iq.fu_full::FloatMisc                   90      0.04%     24.19% # attempts to use FU when none available
system.cpu.iq.fu_full::FloatSqrt                    0      0.00%     24.19% # attempts to use FU when none available
system.cpu.iq.fu_full::SimdAdd                      0      0.00%     24.19% # attempts to use FU when none available
system.cpu.iq.fu_full::SimdAddAcc                   0      0.00%     24.19% # attempts to use FU when none available
system.cpu.iq.fu_full::SimdAlu                      1      0.00%     24.19% # attempts to use FU when none available
system.cpu.iq.fu_full::SimdCmp                      2      0.00%     24.19% # attempts to use FU when none available
system.cpu.iq.fu_full::SimdCvt                      0      0.00%     24.19% # attempts to use FU when none available
system.cpu.iq.fu_full::SimdMisc                     0      0.00%     24.19% # attempts to use FU when none available
system.cpu.iq.fu_full::SimdMult                     0      0.00%     24.19% # attempts to use FU when none available
system.cpu.iq.fu_full::SimdMultAcc                  0      0.00%     24.19% # attempts to use FU when none available
system.cpu.iq.fu_full::SimdShift                    0      0.00%     24.19% # attempts to use FU when none available
system.cpu.iq.fu_full::SimdShiftAcc                 0      0.00%     24.19% # attempts to use FU when none available
system.cpu.iq.fu_full::SimdDiv                      0      0.00%     24.19% # attempts to use FU when none available
system.cpu.iq.fu_full::SimdSqrt                     0      0.00%     24.19% # attempts to use FU when none available
system.cpu.iq.fu_full::SimdFloatAdd                 0      0.00%     24.19% # attempts to use FU when none available
system.cpu.iq.fu_full::SimdFloatAlu                 0      0.00%     24.19% # attempts to use FU when none available
system.cpu.iq.fu_full::SimdFloatCmp                 0      0.00%     24.19% # attempts to use FU when none available
system.cpu.iq.fu_full::SimdFloatCvt                 0      0.00%     24.19% # attempts to use FU when none available
system.cpu.iq.fu_full::SimdFloatDiv                 0      0.00%     24.19% # attempts to use FU when none available
system.cpu.iq.fu_full::SimdFloatMisc                0      0.00%     24.19% # attempts to use FU when none available
system.cpu.iq.fu_full::SimdFloatMult                0      0.00%     24.19% # attempts to use FU when none available
system.cpu.iq.fu_full::SimdFloatMultAcc             0      0.00%     24.19% # attempts to use FU when none available
system.cpu.iq.fu_full::SimdFloatSqrt                0      0.00%     24.19% # attempts to use FU when none available
system.cpu.iq.fu_full::SimdReduceAdd                0      0.00%     24.19% # attempts to use FU when none available
system.cpu.iq.fu_full::SimdReduceAlu                0      0.00%     24.19% # attempts to use FU when none available
system.cpu.iq.fu_full::SimdReduceCmp                0      0.00%     24.19% # attempts to use FU when none available
system.cpu.iq.fu_full::SimdFloatReduceAdd            0      0.00%     24.19% # attempts to use FU when none available
system.cpu.iq.fu_full::SimdFloatReduceCmp            0      0.00%     24.19% # attempts to use FU when none available
system.cpu.iq.fu_full::SimdAes                      0      0.00%     24.19% # attempts to use FU when none available
system.cpu.iq.fu_full::SimdAesMix                   0      0.00%     24.19% # attempts to use FU when none available
system.cpu.iq.fu_full::SimdSha1Hash                 0      0.00%     24.19% # attempts to use FU when none available
system.cpu.iq.fu_full::SimdSha1Hash2                0      0.00%     24.19% # attempts to use FU when none available
system.cpu.iq.fu_full::SimdSha256Hash               0      0.00%     24.19% # attempts to use FU when none available
system.cpu.iq.fu_full::SimdSha256Hash2              0      0.00%     24.19% # attempts to use FU when none available
system.cpu.iq.fu_full::SimdShaSigma2                0      0.00%     24.19% # attempts to use FU when none available
system.cpu.iq.fu_full::SimdShaSigma3                0      0.00%     24.19% # attempts to use FU when none available
system.cpu.iq.fu_full::SimdPredAlu                  0      0.00%     24.19% # attempts to use FU when none available
system.cpu.iq.fu_full::MemRead                 116099     53.54%     77.72% # attempts to use FU when none available
system.cpu.iq.fu_full::MemWrite                 48306     22.28%    100.00% # attempts to use FU when none available
system.cpu.iq.fu_full::FloatMemRead                 0      0.00%    100.00% # attempts to use FU when none available
system.cpu.iq.fu_full::FloatMemWrite                0      0.00%    100.00% # attempts to use FU when none available
system.cpu.iq.fu_full::IprAccess                    0      0.00%    100.00% # attempts to use FU when none available
system.cpu.iq.fu_full::InstPrefetch                 0      0.00%    100.00% # attempts to use FU when none available
system.cpu.iq.int_alu_accesses               12821761                       # Number of integer alu accesses
system.cpu.iq.int_inst_queue_reads           33290389                       # Number of integer instruction queue reads
system.cpu.iq.int_inst_queue_wakeup_accesses     12328445                       # Number of integer instruction queue wakeup accesses
system.cpu.iq.int_inst_queue_writes          15040448                       # Number of integer instruction queue writes
system.cpu.iq.iqInstsAdded                   13293959                       # Number of instructions added to the IQ (excludes non-spec)
system.cpu.iq.iqInstsIssued                  12712546                       # Number of instructions issued
system.cpu.iq.iqNonSpecInstsAdded                 195                       # Number of non-speculative instructions added to the IQ
system.cpu.iq.iqSquashedInstsExamined         1916354                       # Number of squashed instructions iterated over during squash; mainly for profiling
system.cpu.iq.iqSquashedInstsIssued             16501                       # Number of squashed instructions issued
system.cpu.iq.iqSquashedNonSpecRemoved             33                       # Number of squashed non-spec instructions that were removed
system.cpu.iq.iqSquashedOperandsExamined      1584143                       # Number of squashed operands that are examined and possibly removed from graph
system.cpu.iq.issued_per_cycle::samples       7847155                       # Number of insts issued each cycle
system.cpu.iq.issued_per_cycle::mean         1.620020                       # Number of insts issued each cycle
system.cpu.iq.issued_per_cycle::stdev        2.328388                       # Number of insts issued each cycle
system.cpu.iq.issued_per_cycle::underflows            0      0.00%      0.00% # Number of insts issued each cycle
system.cpu.iq.issued_per_cycle::0             4434955     56.52%     56.52% # Number of insts issued each cycle
system.cpu.iq.issued_per_cycle::1              608054      7.75%     64.27% # Number of insts issued each cycle
system.cpu.iq.issued_per_cycle::2              616055      7.85%     72.12% # Number of insts issued each cycle
system.cpu.iq.issued_per_cycle::3              564904      7.20%     79.31% # Number of insts issued each cycle
system.cpu.iq.issued_per_cycle::4              430557      5.49%     84.80% # Number of insts issued each cycle
system.cpu.iq.issued_per_cycle::5              402523      5.13%     89.93% # Number of insts issued each cycle
system.cpu.iq.issued_per_cycle::6              316122      4.03%     93.96% # Number of insts issued each cycle
system.cpu.iq.issued_per_cycle::7              245785      3.13%     97.09% # Number of insts issued each cycle
system.cpu.iq.issued_per_cycle::8              228200      2.91%    100.00% # Number of insts issued each cycle
system.cpu.iq.issued_per_cycle::overflows            0      0.00%    100.00% # Number of insts issued each cycle
system.cpu.iq.issued_per_cycle::min_value            0                       # Number of insts issued each cycle
system.cpu.iq.issued_per_cycle::max_value            8                       # Number of insts issued each cycle
system.cpu.iq.issued_per_cycle::total         7847155                       # Number of insts issued each cycle
system.cpu.iq.rate                           1.598664                       # Inst issue rate
system.cpu.iq.vec_alu_accesses                 107639                       # Number of vector alu accesses
system.cpu.iq.vec_inst_queue_reads             215215                       # Number of vector instruction queue reads
system.cpu.iq.vec_inst_queue_wakeup_accesses       105457                       # Number of vector instruction queue wakeup accesses
system.cpu.iq.vec_inst_queue_writes            170226                       # Number of vector instruction queue writes
system.cpu.itb.accesses                             0                       # DTB accesses
system.cpu.itb.align_faults                         0                       # Number of TLB faults due to alignment restrictions
system.cpu.itb.domain_faults                        0                       # Number of TLB faults due to domain restrictions
system.cpu.itb.flush_entries                        0                       # Number of entries that have been flushed from TLB
system.cpu.itb.flush_tlb                            2                       # Number of times complete TLB was flushed
system.cpu.itb.flush_tlb_asid                       0                       # Number of times TLB was flushed by ASID
system.cpu.itb.flush_tlb_mva                        0                       # Number of times TLB was flushed by MVA
system.cpu.itb.flush_tlb_mva_asid                   0                       # Number of times TLB was flushed by MVA & ASID
system.cpu.itb.hits                                 0                       # DTB hits
system.cpu.itb.inst_accesses                        0                       # ITB inst accesses
system.cpu.itb.inst_hits                            0                       # ITB inst hits
system.cpu.itb.inst_misses                          0                       # ITB inst misses
system.cpu.itb.misses                               0                       # DTB misses
system.cpu.itb.perms_faults                         0                       # Number of TLB faults due to permissions restrictions
system.cpu.itb.prefetch_faults                      0                       # Number of TLB faults due to prefetch
system.cpu.itb.read_accesses                        0                       # DTB read accesses
system.cpu.itb.read_hits                            0                       # DTB read hits
system.cpu.itb.read_misses                          0                       # DTB read misses
system.cpu.itb.stage2_mmu.stage2_tlb.accesses            0                       # DTB accesses
system.cpu.itb.stage2_mmu.stage2_tlb.align_faults            0                       # Number of TLB faults due to alignment restrictions
system.cpu.itb.stage2_mmu.stage2_tlb.domain_faults            0                       # Number of TLB faults due to domain restrictions
system.cpu.itb.stage2_mmu.stage2_tlb.flush_entries            0                       # Number of entries that have been flushed from TLB
system.cpu.itb.stage2_mmu.stage2_tlb.flush_tlb            0                       # Number of times complete TLB was flushed
system.cpu.itb.stage2_mmu.stage2_tlb.flush_tlb_asid            0                       # Number of times TLB was flushed by ASID
system.cpu.itb.stage2_mmu.stage2_tlb.flush_tlb_mva            0                       # Number of times TLB was flushed by MVA
system.cpu.itb.stage2_mmu.stage2_tlb.flush_tlb_mva_asid            0                       # Number of times TLB was flushed by MVA & ASID
system.cpu.itb.stage2_mmu.stage2_tlb.hits            0                       # DTB hits
system.cpu.itb.stage2_mmu.stage2_tlb.inst_accesses            0                       # ITB inst accesses
system.cpu.itb.stage2_mmu.stage2_tlb.inst_hits            0                       # ITB inst hits
system.cpu.itb.stage2_mmu.stage2_tlb.inst_misses            0                       # ITB inst misses
system.cpu.itb.stage2_mmu.stage2_tlb.misses            0                       # DTB misses
system.cpu.itb.stage2_mmu.stage2_tlb.perms_faults            0                       # Number of TLB faults due to permissions restrictions
system.cpu.itb.stage2_mmu.stage2_tlb.prefetch_faults            0                       # Number of TLB faults due to prefetch
system.cpu.itb.stage2_mmu.stage2_tlb.read_accesses            0                       # DTB read accesses
system.cpu.itb.stage2_mmu.stage2_tlb.read_hits            0                       # DTB read hits
system.cpu.itb.stage2_mmu.stage2_tlb.read_misses            0                       # DTB read misses
system.cpu.itb.stage2_mmu.stage2_tlb.walker.walkRequestOrigin_Requested::Data            0                       # Table walker requests started/completed, data/inst
system.cpu.itb.stage2_mmu.stage2_tlb.walker.walkRequestOrigin_Requested::Inst            0                       # Table walker requests started/completed, data/inst
system.cpu.itb.stage2_mmu.stage2_tlb.walker.walkRequestOrigin_Requested::total            0                       # Table walker requests started/completed, data/inst
system.cpu.itb.stage2_mmu.stage2_tlb.walker.walkRequestOrigin_Completed::Data            0                       # Table walker requests started/completed, data/inst
system.cpu.itb.stage2_mmu.stage2_tlb.walker.walkRequestOrigin_Completed::Inst            0                       # Table walker requests started/completed, data/inst
system.cpu.itb.stage2_mmu.stage2_tlb.walker.walkRequestOrigin_Completed::total            0                       # Table walker requests started/completed, data/inst
system.cpu.itb.stage2_mmu.stage2_tlb.walker.walkRequestOrigin::total            0                       # Table walker requests started/completed, data/inst
system.cpu.itb.stage2_mmu.stage2_tlb.walker.walks            0                       # Table walker walks requested
system.cpu.itb.stage2_mmu.stage2_tlb.write_accesses            0                       # DTB write accesses
system.cpu.itb.stage2_mmu.stage2_tlb.write_hits            0                       # DTB write hits
system.cpu.itb.stage2_mmu.stage2_tlb.write_misses            0                       # DTB write misses
system.cpu.itb.walker.walkRequestOrigin_Requested::Data            0                       # Table walker requests started/completed, data/inst
system.cpu.itb.walker.walkRequestOrigin_Requested::Inst            0                       # Table walker requests started/completed, data/inst
system.cpu.itb.walker.walkRequestOrigin_Requested::total            0                       # Table walker requests started/completed, data/inst
system.cpu.itb.walker.walkRequestOrigin_Completed::Data            0                       # Table walker requests started/completed, data/inst
system.cpu.itb.walker.walkRequestOrigin_Completed::Inst            0                       # Table walker requests started/completed, data/inst
system.cpu.itb.walker.walkRequestOrigin_Completed::total            0                       # Table walker requests started/completed, data/inst
system.cpu.itb.walker.walkRequestOrigin::total            0                       # Table walker requests started/completed, data/inst
system.cpu.itb.walker.walks                         0                       # Table walker walks requested
system.cpu.itb.write_accesses                       0                       # DTB write accesses
system.cpu.itb.write_hits                           0                       # DTB write hits
system.cpu.itb.write_misses                         0                       # DTB write misses
system.cpu.memDep0.conflictingLoads             42991                       # Number of conflicting loads.
system.cpu.memDep0.conflictingStores            96148                       # Number of conflicting stores.
system.cpu.memDep0.insertedLoads              3245836                       # Number of loads inserted to the mem dependence unit.
system.cpu.memDep0.insertedStores             1825502                       # Number of stores inserted to the mem dependence unit.
system.cpu.misc_regfile_reads                 9371813                       # number of misc regfile reads
system.cpu.misc_regfile_writes                  60935                       # number of misc regfile writes
system.cpu.numCycles                          7951983                       # number of cpu cycles simulated
system.cpu.numWorkItemsCompleted                    0                       # number of work items this cpu completed
system.cpu.numWorkItemsStarted                      0                       # number of work items this cpu started
system.cpu.rename.BlockCycles                  664682                       # Number of cycles rename is blocking
system.cpu.rename.CommittedMaps              11629682                       # Number of HB maps that are committed
system.cpu.rename.IQFullEvents                  71758                       # Number of times rename has blocked due to IQ full
system.cpu.rename.IdleCycles                  1403098                       # Number of cycles rename is idle
system.cpu.rename.LQFullEvents                 765422                       # Number of times rename has blocked due to LQ full
system.cpu.rename.ROBFullEvents                  1549                       # Number of times rename has blocked due to ROB full
system.cpu.rename.RenameLookups              21988871                       # Number of register rename lookups that rename has made
system.cpu.rename.RenamedInsts               13531653                       # Number of instructions processed by rename
system.cpu.rename.RenamedOperands            13863867                       # Number of destination operands rename has renamed
system.cpu.rename.RunCycles                   2106122                       # Number of cycles rename is running
system.cpu.rename.SQFullEvents                 770031                       # Number of times rename has blocked due to SQ full
system.cpu.rename.SquashCycles                  36102                       # Number of cycles rename is squashing
system.cpu.rename.UnblockCycles               1693334                       # Number of cycles rename is unblocking
system.cpu.rename.UndoneMaps                  2234130                       # Number of HB maps that are undone due to squashing
system.cpu.rename.int_rename_lookups         17750336                       # Number of integer rename lookups
system.cpu.rename.serializeStallCycles        1943817                       # count of cycles rename stalled for serializing inst
system.cpu.rename.serializingInsts              47279                       # count of serializing insts renamed
system.cpu.rename.skidInsts                   1137533                       # count of insts added to the skid buffer
system.cpu.rename.tempSerializingInsts            197                       # count of temporary serializing insts renamed
system.cpu.rename.vec_rename_lookups           106020                       # Number of vector rename lookups
system.cpu.rob.rob_reads                     19952073                       # The number of ROB reads
system.cpu.rob.rob_writes                    26839093                       # The number of ROB writes
system.cpu.timesIdled                            9275                       # Number of times that the entire CPU went into an idle state and unscheduled itself
system.cpu.vec_regfile_reads                    80931                       # number of vector regfile reads
system.cpu.vec_regfile_writes                   83914                       # number of vector regfile writes
system.cpu.workload.numSyscalls                    90                       # Number of system calls
system.membus.snoop_filter.hit_multi_requests            0                       # Number of requests hitting in the snoop filter with multiple (>1) holders of the requested data.
system.membus.snoop_filter.hit_multi_snoops            0                       # Number of snoops hitting in the snoop filter with multiple (>1) holders of the requested data.
system.membus.snoop_filter.hit_single_requests          178                       # Number of requests hitting in the snoop filter with a single holder of the requested data.
system.membus.snoop_filter.hit_single_snoops            0                       # Number of snoops hitting in the snoop filter with a single holder of the requested data.
system.membus.snoop_filter.tot_requests         93728                       # Total number of requests made to the snoop filter.
system.membus.snoop_filter.tot_snoops               0                       # Total number of snoops made to the snoop filter.
system.tol2bus.snoop_filter.hit_multi_requests            3                       # Number of requests hitting in the snoop filter with multiple (>1) holders of the requested data.
system.tol2bus.snoop_filter.hit_multi_snoops            0                       # Number of snoops hitting in the snoop filter with multiple (>1) holders of the requested data.
system.tol2bus.snoop_filter.hit_single_requests       162253                       # Number of requests hitting in the snoop filter with a single holder of the requested data.
system.tol2bus.snoop_filter.hit_single_snoops            0                       # Number of snoops hitting in the snoop filter with a single holder of the requested data.
system.tol2bus.snoop_filter.tot_requests       325658                       # Total number of requests made to the snoop filter.
system.tol2bus.snoop_filter.tot_snoops              0                       # Total number of snoops made to the snoop filter.
system.membus.trans_dist::ReadResp               8779                       # Transaction distribution
system.membus.trans_dist::WritebackDirty          124                       # Transaction distribution
system.membus.trans_dist::CleanEvict               54                       # Transaction distribution
system.membus.trans_dist::ReadExReq             27418                       # Transaction distribution
system.membus.trans_dist::ReadExResp            27418                       # Transaction distribution
system.membus.trans_dist::ReadSharedReq          8779                       # Transaction distribution
system.membus.trans_dist::InvalidateReq         57353                       # Transaction distribution
system.membus.pkt_count_system.l2.mem_side::system.mem_ctrls.port       129925                       # Packet count per connected master and slave (bytes)
system.membus.pkt_count::total                 129925                       # Packet count per connected master and slave (bytes)
system.membus.pkt_size_system.l2.mem_side::system.mem_ctrls.port      2324544                       # Cumulative packet size per connected master and slave (bytes)
system.membus.pkt_size::total                 2324544                       # Cumulative packet size per connected master and slave (bytes)
system.membus.snoops                                0                       # Total snoops (count)
system.membus.snoopTraffic                          0                       # Total snoop traffic (bytes)
system.membus.snoop_fanout::samples             93550                       # Request fanout histogram
system.membus.snoop_fanout::mean                    0                       # Request fanout histogram
system.membus.snoop_fanout::stdev                   0                       # Request fanout histogram
system.membus.snoop_fanout::underflows              0      0.00%      0.00% # Request fanout histogram
system.membus.snoop_fanout::0                   93550    100.00%    100.00% # Request fanout histogram
system.membus.snoop_fanout::1                       0      0.00%    100.00% # Request fanout histogram
system.membus.snoop_fanout::overflows               0      0.00%    100.00% # Request fanout histogram
system.membus.snoop_fanout::min_value               0                       # Request fanout histogram
system.membus.snoop_fanout::max_value               0                       # Request fanout histogram
system.membus.snoop_fanout::total               93550                       # Request fanout histogram
system.membus.reqLayer0.occupancy           102329000                       # Layer occupancy (ticks)
system.membus.reqLayer0.utilization               2.6                       # Layer utilization (%)
system.membus.respLayer1.occupancy          190386500                       # Layer occupancy (ticks)
system.membus.respLayer1.utilization              4.8                       # Layer utilization (%)
system.membus.power_state.pwrStateResidencyTicks::UNDEFINED   3975991000                       # Cumulative time (in ticks) in various power states
system.tol2bus.trans_dist::ReadResp             67981                       # Transaction distribution
system.tol2bus.trans_dist::WritebackDirty       113203                       # Transaction distribution
system.tol2bus.trans_dist::WritebackClean        43647                       # Transaction distribution
system.tol2bus.trans_dist::CleanEvict            5581                       # Transaction distribution
system.tol2bus.trans_dist::ReadExReq            38070                       # Transaction distribution
system.tol2bus.trans_dist::ReadExResp           38070                       # Transaction distribution
system.tol2bus.trans_dist::ReadCleanReq         43775                       # Transaction distribution
system.tol2bus.trans_dist::ReadSharedReq        24206                       # Transaction distribution
system.tol2bus.trans_dist::InvalidateReq        57354                       # Transaction distribution
system.tol2bus.trans_dist::InvalidateResp        57354                       # Transaction distribution
system.tol2bus.pkt_count_system.cpu.icache.mem_side::system.l2.cpu_side       131197                       # Packet count per connected master and slave (bytes)
system.tol2bus.pkt_count_system.cpu.dcache.mem_side::system.l2.cpu_side       357866                       # Packet count per connected master and slave (bytes)
system.tol2bus.pkt_count::total                489063                       # Packet count per connected master and slave (bytes)
system.tol2bus.pkt_size_system.cpu.icache.mem_side::system.l2.cpu_side      5595008                       # Cumulative packet size per connected master and slave (bytes)
system.tol2bus.pkt_size_system.cpu.dcache.mem_side::system.l2.cpu_side     11222720                       # Cumulative packet size per connected master and slave (bytes)
system.tol2bus.pkt_size::total               16817728                       # Cumulative packet size per connected master and slave (bytes)
system.tol2bus.snoops                             178                       # Total snoops (count)
system.tol2bus.snoopTraffic                      7936                       # Total snoop traffic (bytes)
system.tol2bus.snoop_fanout::samples           163583                       # Request fanout histogram
system.tol2bus.snoop_fanout::mean            0.000018                       # Request fanout histogram
system.tol2bus.snoop_fanout::stdev           0.004282                       # Request fanout histogram
system.tol2bus.snoop_fanout::underflows             0      0.00%      0.00% # Request fanout histogram
system.tol2bus.snoop_fanout::0                 163580    100.00%    100.00% # Request fanout histogram
system.tol2bus.snoop_fanout::1                      3      0.00%    100.00% # Request fanout histogram
system.tol2bus.snoop_fanout::2                      0      0.00%    100.00% # Request fanout histogram
system.tol2bus.snoop_fanout::overflows              0      0.00%    100.00% # Request fanout histogram
system.tol2bus.snoop_fanout::min_value              0                       # Request fanout histogram
system.tol2bus.snoop_fanout::max_value              1                       # Request fanout histogram
system.tol2bus.snoop_fanout::total             163583                       # Request fanout histogram
system.tol2bus.reqLayer0.occupancy          325412511                       # Layer occupancy (ticks)
system.tol2bus.reqLayer0.utilization              8.2                       # Layer utilization (%)
system.tol2bus.respLayer1.occupancy         122167347                       # Layer occupancy (ticks)
system.tol2bus.respLayer1.utilization             3.1                       # Layer utilization (%)
system.tol2bus.respLayer0.occupancy          65664496                       # Layer occupancy (ticks)
system.tol2bus.respLayer0.utilization             1.7                       # Layer utilization (%)
system.tol2bus.power_state.pwrStateResidencyTicks::UNDEFINED   3975991000                       # Cumulative time (in ticks) in various power states
system.voltage_domain.voltage                       1                       # Voltage in Volts
system.clk_domain.clock                          1000                       # Clock period in ticks
system.l2.demand_hits::.cpu.inst                23644                       # number of demand (read+write) hits
system.l2.demand_hits::.cpu.data                26891                       # number of demand (read+write) hits
system.l2.demand_hits::.cpu.icache.prefetcher        19319                       # number of demand (read+write) hits
system.l2.demand_hits::total                    69854                       # number of demand (read+write) hits
system.l2.overall_hits::.cpu.inst               23644                       # number of overall hits
system.l2.overall_hits::.cpu.data               26891                       # number of overall hits
system.l2.overall_hits::.cpu.icache.prefetcher        19319                       # number of overall hits
system.l2.overall_hits::total                   69854                       # number of overall hits
system.l2.demand_misses::.cpu.inst                812                       # number of demand (read+write) misses
system.l2.demand_misses::.cpu.data              35385                       # number of demand (read+write) misses
system.l2.demand_misses::total                  36197                       # number of demand (read+write) misses
system.l2.overall_misses::.cpu.inst               812                       # number of overall misses
system.l2.overall_misses::.cpu.data             35385                       # number of overall misses
system.l2.overall_misses::total                 36197                       # number of overall misses
system.l2.demand_miss_latency::.cpu.inst     63626000                       # number of demand (read+write) miss cycles
system.l2.demand_miss_latency::.cpu.data   2728453500                       # number of demand (read+write) miss cycles
system.l2.demand_miss_latency::total       2792079500                       # number of demand (read+write) miss cycles
system.l2.overall_miss_latency::.cpu.inst     63626000                       # number of overall miss cycles
system.l2.overall_miss_latency::.cpu.data   2728453500                       # number of overall miss cycles
system.l2.overall_miss_latency::total      2792079500                       # number of overall miss cycles
system.l2.demand_accesses::.cpu.inst            24456                       # number of demand (read+write) accesses
system.l2.demand_accesses::.cpu.data            62276                       # number of demand (read+write) accesses
system.l2.demand_accesses::.cpu.icache.prefetcher        19319                       # number of demand (read+write) accesses
system.l2.demand_accesses::total               106051                       # number of demand (read+write) accesses
system.l2.overall_accesses::.cpu.inst           24456                       # number of overall (read+write) accesses
system.l2.overall_accesses::.cpu.data           62276                       # number of overall (read+write) accesses
system.l2.overall_accesses::.cpu.icache.prefetcher        19319                       # number of overall (read+write) accesses
system.l2.overall_accesses::total              106051                       # number of overall (read+write) accesses
system.l2.demand_miss_rate::.cpu.inst        0.033202                       # miss rate for demand accesses
system.l2.demand_miss_rate::.cpu.data        0.568196                       # miss rate for demand accesses
system.l2.demand_miss_rate::total            0.341317                       # miss rate for demand accesses
system.l2.overall_miss_rate::.cpu.inst       0.033202                       # miss rate for overall accesses
system.l2.overall_miss_rate::.cpu.data       0.568196                       # miss rate for overall accesses
system.l2.overall_miss_rate::total           0.341317                       # miss rate for overall accesses
system.l2.demand_avg_miss_latency::.cpu.inst 78357.142857                       # average overall miss latency
system.l2.demand_avg_miss_latency::.cpu.data 77107.630352                       # average overall miss latency
system.l2.demand_avg_miss_latency::total 77135.660414                       # average overall miss latency
system.l2.overall_avg_miss_latency::.cpu.inst 78357.142857                       # average overall miss latency
system.l2.overall_avg_miss_latency::.cpu.data 77107.630352                       # average overall miss latency
system.l2.overall_avg_miss_latency::total 77135.660414                       # average overall miss latency
system.l2.blocked_cycles::no_mshrs                  0                       # number of cycles access was blocked
system.l2.blocked_cycles::no_targets                0                       # number of cycles access was blocked
system.l2.blocked::no_mshrs                         0                       # number of cycles access was blocked
system.l2.blocked::no_targets                       0                       # number of cycles access was blocked
system.l2.avg_blocked_cycles::no_mshrs            nan                       # average number of cycles each access was blocked
system.l2.avg_blocked_cycles::no_targets          nan                       # average number of cycles each access was blocked
system.l2.writebacks::.writebacks                 124                       # number of writebacks
system.l2.writebacks::total                       124                       # number of writebacks
system.l2.demand_mshr_misses::.cpu.inst           812                       # number of demand (read+write) MSHR misses
system.l2.demand_mshr_misses::.cpu.data         35385                       # number of demand (read+write) MSHR misses
system.l2.demand_mshr_misses::total             36197                       # number of demand (read+write) MSHR misses
system.l2.overall_mshr_misses::.cpu.inst          812                       # number of overall MSHR misses
system.l2.overall_mshr_misses::.cpu.data        35385                       # number of overall MSHR misses
system.l2.overall_mshr_misses::total            36197                       # number of overall MSHR misses
system.l2.demand_mshr_miss_latency::.cpu.inst     55505501                       # number of demand (read+write) MSHR miss cycles
system.l2.demand_mshr_miss_latency::.cpu.data   2374603500                       # number of demand (read+write) MSHR miss cycles
system.l2.demand_mshr_miss_latency::total   2430109001                       # number of demand (read+write) MSHR miss cycles
system.l2.overall_mshr_miss_latency::.cpu.inst     55505501                       # number of overall MSHR miss cycles
system.l2.overall_mshr_miss_latency::.cpu.data   2374603500                       # number of overall MSHR miss cycles
system.l2.overall_mshr_miss_latency::total   2430109001                       # number of overall MSHR miss cycles
system.l2.demand_mshr_miss_rate::.cpu.inst     0.033202                       # mshr miss rate for demand accesses
system.l2.demand_mshr_miss_rate::.cpu.data     0.568196                       # mshr miss rate for demand accesses
system.l2.demand_mshr_miss_rate::total       0.341317                       # mshr miss rate for demand accesses
system.l2.overall_mshr_miss_rate::.cpu.inst     0.033202                       # mshr miss rate for overall accesses
system.l2.overall_mshr_miss_rate::.cpu.data     0.568196                       # mshr miss rate for overall accesses
system.l2.overall_mshr_miss_rate::total      0.341317                       # mshr miss rate for overall accesses
system.l2.demand_avg_mshr_miss_latency::.cpu.inst 68356.528325                       # average overall mshr miss latency
system.l2.demand_avg_mshr_miss_latency::.cpu.data 67107.630352                       # average overall mshr miss latency
system.l2.demand_avg_mshr_miss_latency::total 67135.646628                       # average overall mshr miss latency
system.l2.overall_avg_mshr_miss_latency::.cpu.inst 68356.528325                       # average overall mshr miss latency
system.l2.overall_avg_mshr_miss_latency::.cpu.data 67107.630352                       # average overall mshr miss latency
system.l2.overall_avg_mshr_miss_latency::total 67135.646628                       # average overall mshr miss latency
system.l2.replacements                            178                       # number of replacements
system.l2.WritebackDirty_hits::.writebacks       113079                       # number of WritebackDirty hits
system.l2.WritebackDirty_hits::total           113079                       # number of WritebackDirty hits
system.l2.WritebackDirty_accesses::.writebacks       113079                       # number of WritebackDirty accesses(hits+misses)
system.l2.WritebackDirty_accesses::total       113079                       # number of WritebackDirty accesses(hits+misses)
system.l2.WritebackClean_hits::.writebacks        43644                       # number of WritebackClean hits
system.l2.WritebackClean_hits::total            43644                       # number of WritebackClean hits
system.l2.WritebackClean_accesses::.writebacks        43644                       # number of WritebackClean accesses(hits+misses)
system.l2.WritebackClean_accesses::total        43644                       # number of WritebackClean accesses(hits+misses)
system.l2.ReadExReq_hits::.cpu.data             10652                       # number of ReadExReq hits
system.l2.ReadExReq_hits::total                 10652                       # number of ReadExReq hits
system.l2.ReadExReq_misses::.cpu.data           27418                       # number of ReadExReq misses
system.l2.ReadExReq_misses::total               27418                       # number of ReadExReq misses
system.l2.ReadExReq_miss_latency::.cpu.data   2115181500                       # number of ReadExReq miss cycles
system.l2.ReadExReq_miss_latency::total    2115181500                       # number of ReadExReq miss cycles
system.l2.ReadExReq_accesses::.cpu.data         38070                       # number of ReadExReq accesses(hits+misses)
system.l2.ReadExReq_accesses::total             38070                       # number of ReadExReq accesses(hits+misses)
system.l2.ReadExReq_miss_rate::.cpu.data     0.720200                       # miss rate for ReadExReq accesses
system.l2.ReadExReq_miss_rate::total         0.720200                       # miss rate for ReadExReq accesses
system.l2.ReadExReq_avg_miss_latency::.cpu.data 77145.725436                       # average ReadExReq miss latency
system.l2.ReadExReq_avg_miss_latency::total 77145.725436                       # average ReadExReq miss latency
system.l2.ReadExReq_mshr_misses::.cpu.data        27418                       # number of ReadExReq MSHR misses
system.l2.ReadExReq_mshr_misses::total          27418                       # number of ReadExReq MSHR misses
system.l2.ReadExReq_mshr_miss_latency::.cpu.data   1841001500                       # number of ReadExReq MSHR miss cycles
system.l2.ReadExReq_mshr_miss_latency::total   1841001500                       # number of ReadExReq MSHR miss cycles
system.l2.ReadExReq_mshr_miss_rate::.cpu.data     0.720200                       # mshr miss rate for ReadExReq accesses
system.l2.ReadExReq_mshr_miss_rate::total     0.720200                       # mshr miss rate for ReadExReq accesses
system.l2.ReadExReq_avg_mshr_miss_latency::.cpu.data 67145.725436                       # average ReadExReq mshr miss latency
system.l2.ReadExReq_avg_mshr_miss_latency::total 67145.725436                       # average ReadExReq mshr miss latency
system.l2.ReadCleanReq_hits::.cpu.inst          23644                       # number of ReadCleanReq hits
system.l2.ReadCleanReq_hits::.cpu.icache.prefetcher        19319                       # number of ReadCleanReq hits
system.l2.ReadCleanReq_hits::total              42963                       # number of ReadCleanReq hits
system.l2.ReadCleanReq_misses::.cpu.inst          812                       # number of ReadCleanReq misses
system.l2.ReadCleanReq_misses::total              812                       # number of ReadCleanReq misses
system.l2.ReadCleanReq_miss_latency::.cpu.inst     63626000                       # number of ReadCleanReq miss cycles
system.l2.ReadCleanReq_miss_latency::total     63626000                       # number of ReadCleanReq miss cycles
system.l2.ReadCleanReq_accesses::.cpu.inst        24456                       # number of ReadCleanReq accesses(hits+misses)
system.l2.ReadCleanReq_accesses::.cpu.icache.prefetcher        19319                       # number of ReadCleanReq accesses(hits+misses)
[...]
system.cpu.dcache.demand_miss_latency::total  14596255804                       # number of demand (read+write) miss cycles
system.cpu.dcache.overall_miss_latency::.cpu.data  14596255804                       # number of overall miss cycles
system.cpu.dcache.overall_miss_latency::total  14596255804                       # number of overall miss cycles
system.cpu.dcache.demand_accesses::.cpu.data      4545255                       # number of demand (read+write) accesses
system.cpu.dcache.demand_accesses::total      4545255                       # number of demand (read+write) accesses
system.cpu.dcache.overall_accesses::.cpu.data      4545310                       # number of overall (read+write) accesses
system.cpu.dcache.overall_accesses::total      4545310                       # number of overall (read+write) accesses
system.cpu.dcache.demand_miss_rate::.cpu.data     0.077652                       # miss rate for demand accesses
system.cpu.dcache.demand_miss_rate::total     0.077652                       # miss rate for demand accesses
system.cpu.dcache.overall_miss_rate::.cpu.data     0.077654                       # miss rate for overall accesses
system.cpu.dcache.overall_miss_rate::total     0.077654                       # miss rate for overall accesses
system.cpu.dcache.demand_avg_miss_latency::.cpu.data 41355.375748                       # average overall miss latency
system.cpu.dcache.demand_avg_miss_latency::total 41355.375748                       # average overall miss latency
system.cpu.dcache.overall_avg_miss_latency::.cpu.data 41353.852573                       # average overall miss latency
system.cpu.dcache.overall_avg_miss_latency::total 41353.852573                       # average overall miss latency
system.cpu.dcache.blocked_cycles::no_mshrs        27549                       # number of cycles access was blocked
system.cpu.dcache.blocked_cycles::no_targets          614                       # number of cycles access was blocked
system.cpu.dcache.blocked::no_mshrs              1877                       # number of cycles access was blocked
system.cpu.dcache.blocked::no_targets              20                       # number of cycles access was blocked
system.cpu.dcache.avg_blocked_cycles::no_mshrs    14.677144                       # average number of cycles each access was blocked
system.cpu.dcache.avg_blocked_cycles::no_targets    30.700000                       # average number of cycles each access was blocked
system.cpu.dcache.writebacks::.writebacks       113079                       # number of writebacks
system.cpu.dcache.writebacks::total            113079                       # number of writebacks
system.cpu.dcache.demand_mshr_hits::.cpu.data       233331                       # number of demand (read+write) MSHR hits
system.cpu.dcache.demand_mshr_hits::total       233331                       # number of demand (read+write) MSHR hits
system.cpu.dcache.overall_mshr_hits::.cpu.data       233331                       # number of overall MSHR hits
system.cpu.dcache.overall_mshr_hits::total       233331                       # number of overall MSHR hits
system.cpu.dcache.demand_mshr_misses::.cpu.data       119616                       # number of demand (read+write) MSHR misses
system.cpu.dcache.demand_mshr_misses::total       119616                       # number of demand (read+write) MSHR misses
system.cpu.dcache.overall_mshr_misses::.cpu.data       119629                       # number of overall MSHR misses
system.cpu.dcache.overall_mshr_misses::total       119629                       # number of overall MSHR misses
system.cpu.dcache.demand_mshr_miss_latency::.cpu.data   5522385304                       # number of demand (read+write) MSHR miss cycles
system.cpu.dcache.demand_mshr_miss_latency::total   5522385304                       # number of demand (read+write) MSHR miss cycles
system.cpu.dcache.overall_mshr_miss_latency::.cpu.data   5522710304                       # number of overall MSHR miss cycles
system.cpu.dcache.overall_mshr_miss_latency::total   5522710304                       # number of overall MSHR miss cycles
system.cpu.dcache.demand_mshr_miss_rate::.cpu.data     0.026317                       # mshr miss rate for demand accesses
system.cpu.dcache.demand_mshr_miss_rate::total     0.026317                       # mshr miss rate for demand accesses
system.cpu.dcache.overall_mshr_miss_rate::.cpu.data     0.026319                       # mshr miss rate for overall accesses
system.cpu.dcache.overall_mshr_miss_rate::total     0.026319                       # mshr miss rate for overall accesses
system.cpu.dcache.demand_avg_mshr_miss_latency::.cpu.data 46167.613898                       # average overall mshr miss latency
system.cpu.dcache.demand_avg_mshr_miss_latency::total 46167.613898                       # average overall mshr miss latency
system.cpu.dcache.overall_avg_mshr_miss_latency::.cpu.data 46165.313628                       # average overall mshr miss latency
system.cpu.dcache.overall_avg_mshr_miss_latency::total 46165.313628                       # average overall mshr miss latency
system.cpu.dcache.replacements                 118606                       # number of replacements
system.cpu.dcache.ReadReq_hits::.cpu.data      2882920                       # number of ReadReq hits
system.cpu.dcache.ReadReq_hits::total         2882920                       # number of ReadReq hits
system.cpu.dcache.ReadReq_misses::.cpu.data        78582                       # number of ReadReq misses
system.cpu.dcache.ReadReq_misses::total         78582                       # number of ReadReq misses
system.cpu.dcache.ReadReq_miss_latency::.cpu.data   3729759500                       # number of ReadReq miss cycles
system.cpu.dcache.ReadReq_miss_latency::total   3729759500                       # number of ReadReq miss cycles
system.cpu.dcache.ReadReq_accesses::.cpu.data      2961502                       # number of ReadReq accesses(hits+misses)
system.cpu.dcache.ReadReq_accesses::total      2961502                       # number of ReadReq accesses(hits+misses)
system.cpu.dcache.ReadReq_miss_rate::.cpu.data     0.026535                       # miss rate for ReadReq accesses
system.cpu.dcache.ReadReq_miss_rate::total     0.026535                       # miss rate for ReadReq accesses
system.cpu.dcache.ReadReq_avg_miss_latency::.cpu.data 47463.280395                       # average ReadReq miss latency
system.cpu.dcache.ReadReq_avg_miss_latency::total 47463.280395                       # average ReadReq miss latency
system.cpu.dcache.ReadReq_mshr_hits::.cpu.data        54388                       # number of ReadReq MSHR hits
system.cpu.dcache.ReadReq_mshr_hits::total        54388                       # number of ReadReq MSHR hits
system.cpu.dcache.ReadReq_mshr_misses::.cpu.data        24194                       # number of ReadReq MSHR misses
system.cpu.dcache.ReadReq_mshr_misses::total        24194                       # number of ReadReq MSHR misses
system.cpu.dcache.ReadReq_mshr_miss_latency::.cpu.data    821842500                       # number of ReadReq MSHR miss cycles
system.cpu.dcache.ReadReq_mshr_miss_latency::total    821842500                       # number of ReadReq MSHR miss cycles
system.cpu.dcache.ReadReq_mshr_miss_rate::.cpu.data     0.008170                       # mshr miss rate for ReadReq accesses
system.cpu.dcache.ReadReq_mshr_miss_rate::total     0.008170                       # mshr miss rate for ReadReq accesses
system.cpu.dcache.ReadReq_avg_mshr_miss_latency::.cpu.data 33968.855915                       # average ReadReq mshr miss latency
system.cpu.dcache.ReadReq_avg_mshr_miss_latency::total 33968.855915                       # average ReadReq mshr miss latency
system.cpu.dcache.WriteReq_hits::.cpu.data      1309388                       # number of WriteReq hits
system.cpu.dcache.WriteReq_hits::total        1309388                       # number of WriteReq hits
system.cpu.dcache.WriteReq_misses::.cpu.data       217023                       # number of WriteReq misses
system.cpu.dcache.WriteReq_misses::total       217023                       # number of WriteReq misses
system.cpu.dcache.WriteReq_miss_latency::.cpu.data   8440829958                       # number of WriteReq miss cycles
system.cpu.dcache.WriteReq_miss_latency::total   8440829958                       # number of WriteReq miss cycles
system.cpu.dcache.WriteReq_accesses::.cpu.data      1526411                       # number of WriteReq accesses(hits+misses)
system.cpu.dcache.WriteReq_accesses::total      1526411                       # number of WriteReq accesses(hits+misses)
system.cpu.dcache.WriteReq_miss_rate::.cpu.data     0.142179                       # miss rate for WriteReq accesses
system.cpu.dcache.WriteReq_miss_rate::total     0.142179                       # miss rate for WriteReq accesses
system.cpu.dcache.WriteReq_avg_miss_latency::.cpu.data 38893.711533                       # average WriteReq miss latency
system.cpu.dcache.WriteReq_avg_miss_latency::total 38893.711533                       # average WriteReq miss latency
system.cpu.dcache.WriteReq_mshr_hits::.cpu.data       178943                       # number of WriteReq MSHR hits
system.cpu.dcache.WriteReq_mshr_hits::total       178943                       # number of WriteReq MSHR hits
system.cpu.dcache.WriteReq_mshr_misses::.cpu.data        38080                       # number of WriteReq MSHR misses
system.cpu.dcache.WriteReq_mshr_misses::total        38080                       # number of WriteReq MSHR misses
system.cpu.dcache.WriteReq_mshr_miss_latency::.cpu.data   2332218458                       # number of WriteReq MSHR miss cycles
system.cpu.dcache.WriteReq_mshr_miss_latency::total   2332218458                       # number of WriteReq MSHR miss cycles
system.cpu.dcache.WriteReq_mshr_miss_rate::.cpu.data     0.024947                       # mshr miss rate for WriteReq accesses
system.cpu.dcache.WriteReq_mshr_miss_rate::total     0.024947                       # mshr miss rate for WriteReq accesses
system.cpu.dcache.WriteReq_avg_mshr_miss_latency::.cpu.data 61245.232616                       # average WriteReq mshr miss latency
system.cpu.dcache.WriteReq_avg_mshr_miss_latency::total 61245.232616                       # average WriteReq mshr miss latency
system.cpu.dcache.SoftPFReq_hits::.cpu.data           42                       # number of SoftPFReq hits
system.cpu.dcache.SoftPFReq_hits::total            42                       # number of SoftPFReq hits
system.cpu.dcache.SoftPFReq_misses::.cpu.data           13                       # number of SoftPFReq misses
system.cpu.dcache.SoftPFReq_misses::total           13                       # number of SoftPFReq misses
system.cpu.dcache.SoftPFReq_accesses::.cpu.data           55                       # number of SoftPFReq accesses(hits+misses)
system.cpu.dcache.SoftPFReq_accesses::total           55                       # number of SoftPFReq accesses(hits+misses)
system.cpu.dcache.SoftPFReq_miss_rate::.cpu.data     0.236364                       # miss rate for SoftPFReq accesses
system.cpu.dcache.SoftPFReq_miss_rate::total     0.236364                       # miss rate for SoftPFReq accesses
system.cpu.dcache.SoftPFReq_mshr_misses::.cpu.data           13                       # number of SoftPFReq MSHR misses
system.cpu.dcache.SoftPFReq_mshr_misses::total           13                       # number of SoftPFReq MSHR misses
system.cpu.dcache.SoftPFReq_mshr_miss_latency::.cpu.data       325000                       # number of SoftPFReq MSHR miss cycles
system.cpu.dcache.SoftPFReq_mshr_miss_latency::total       325000                       # number of SoftPFReq MSHR miss cycles
system.cpu.dcache.SoftPFReq_mshr_miss_rate::.cpu.data     0.236364                       # mshr miss rate for SoftPFReq accesses
system.cpu.dcache.SoftPFReq_mshr_miss_rate::total     0.236364                       # mshr miss rate for SoftPFReq accesses
system.cpu.dcache.SoftPFReq_avg_mshr_miss_latency::.cpu.data        25000                       # average SoftPFReq mshr miss latency
system.cpu.dcache.SoftPFReq_avg_mshr_miss_latency::total        25000                       # average SoftPFReq mshr miss latency
system.cpu.dcache.WriteLineReq_misses::.cpu.data        57342                       # number of WriteLineReq misses
system.cpu.dcache.WriteLineReq_misses::total        57342                       # number of WriteLineReq misses
system.cpu.dcache.WriteLineReq_miss_latency::.cpu.data   2425666346                       # number of WriteLineReq miss cycles
system.cpu.dcache.WriteLineReq_miss_latency::total   2425666346                       # number of WriteLineReq miss cycles
system.cpu.dcache.WriteLineReq_accesses::.cpu.data        57342                       # number of WriteLineReq accesses(hits+misses)
system.cpu.dcache.WriteLineReq_accesses::total        57342                       # number of WriteLineReq accesses(hits+misses)
system.cpu.dcache.WriteLineReq_miss_rate::.cpu.data            1                       # miss rate for WriteLineReq accesses
system.cpu.dcache.WriteLineReq_miss_rate::total            1                       # miss rate for WriteLineReq accesses
system.cpu.dcache.WriteLineReq_avg_miss_latency::.cpu.data 42301.739493                       # average WriteLineReq miss latency
system.cpu.dcache.WriteLineReq_avg_miss_latency::total 42301.739493                       # average WriteLineReq miss latency
system.cpu.dcache.WriteLineReq_mshr_misses::.cpu.data        57342                       # number of WriteLineReq MSHR misses
system.cpu.dcache.WriteLineReq_mshr_misses::total        57342                       # number of WriteLineReq MSHR misses
system.cpu.dcache.WriteLineReq_mshr_miss_latency::.cpu.data   2368324346                       # number of WriteLineReq MSHR miss cycles
system.cpu.dcache.WriteLineReq_mshr_miss_latency::total   2368324346                       # number of WriteLineReq MSHR miss cycles
system.cpu.dcache.WriteLineReq_mshr_miss_rate::.cpu.data            1                       # mshr miss rate for WriteLineReq accesses
system.cpu.dcache.WriteLineReq_mshr_miss_rate::total            1                       # mshr miss rate for WriteLineReq accesses
system.cpu.dcache.WriteLineReq_avg_mshr_miss_latency::.cpu.data 41301.739493                       # average WriteLineReq mshr miss latency
system.cpu.dcache.WriteLineReq_avg_mshr_miss_latency::total 41301.739493                       # average WriteLineReq mshr miss latency
system.cpu.dcache.LoadLockedReq_hits::.cpu.data           85                       # number of LoadLockedReq hits
system.cpu.dcache.LoadLockedReq_hits::total           85                       # number of LoadLockedReq hits
system.cpu.dcache.LoadLockedReq_misses::.cpu.data            1                       # number of LoadLockedReq misses
system.cpu.dcache.LoadLockedReq_misses::total            1                       # number of LoadLockedReq misses
system.cpu.dcache.LoadLockedReq_miss_latency::.cpu.data        13000                       # number of LoadLockedReq miss cycles
system.cpu.dcache.LoadLockedReq_miss_latency::total        13000                       # number of LoadLockedReq miss cycles
system.cpu.dcache.LoadLockedReq_accesses::.cpu.data           86                       # number of LoadLockedReq accesses(hits+misses)
system.cpu.dcache.LoadLockedReq_accesses::total           86                       # number of LoadLockedReq accesses(hits+misses)
system.cpu.dcache.LoadLockedReq_miss_rate::.cpu.data     0.011628                       # miss rate for LoadLockedReq accesses
system.cpu.dcache.LoadLockedReq_miss_rate::total     0.011628                       # miss rate for LoadLockedReq accesses
system.cpu.dcache.LoadLockedReq_avg_miss_latency::.cpu.data        13000                       # average LoadLockedReq miss latency
system.cpu.dcache.LoadLockedReq_avg_miss_latency::total        13000                       # average LoadLockedReq miss latency
system.cpu.dcache.LoadLockedReq_mshr_misses::.cpu.data            1                       # number of LoadLockedReq MSHR misses
system.cpu.dcache.LoadLockedReq_mshr_misses::total            1                       # number of LoadLockedReq MSHR misses
system.cpu.dcache.LoadLockedReq_mshr_miss_latency::.cpu.data        12000                       # number of LoadLockedReq MSHR miss cycles
system.cpu.dcache.LoadLockedReq_mshr_miss_latency::total        12000                       # number of LoadLockedReq MSHR miss cycles
system.cpu.dcache.LoadLockedReq_mshr_miss_rate::.cpu.data     0.011628                       # mshr miss rate for LoadLockedReq accesses
system.cpu.dcache.LoadLockedReq_mshr_miss_rate::total     0.011628                       # mshr miss rate for LoadLockedReq accesses
system.cpu.dcache.LoadLockedReq_avg_mshr_miss_latency::.cpu.data        12000                       # average LoadLockedReq mshr miss latency
system.cpu.dcache.LoadLockedReq_avg_mshr_miss_latency::total        12000                       # average LoadLockedReq mshr miss latency
system.cpu.dcache.StoreCondReq_hits::.cpu.data           71                       # number of StoreCondReq hits
system.cpu.dcache.StoreCondReq_hits::total           71                       # number of StoreCondReq hits
system.cpu.dcache.StoreCondReq_accesses::.cpu.data           71                       # number of StoreCondReq accesses(hits+misses)
system.cpu.dcache.StoreCondReq_accesses::total           71                       # number of StoreCondReq accesses(hits+misses)
system.cpu.dcache.power_state.pwrStateResidencyTicks::UNDEFINED   3975991000                       # Cumulative time (in ticks) in various power states
system.cpu.dcache.tags.tagsinuse          1013.790437                       # Cycle average of tags in use
system.cpu.dcache.tags.total_refs             4312136                       # Total number of references to valid blocks.
system.cpu.dcache.tags.sampled_refs            119630                       # Sample count of references to valid blocks.
system.cpu.dcache.tags.avg_refs             36.045607                       # Average number of references to valid blocks.
system.cpu.dcache.tags.warmup_cycle            176500                       # Cycle when the warmup percentage was hit.
system.cpu.dcache.tags.occ_blocks::.cpu.data  1013.790437                       # Average occupied blocks per requestor
system.cpu.dcache.tags.occ_percent::.cpu.data     0.990030                       # Average percentage of cache occupancy
system.cpu.dcache.tags.occ_percent::total     0.990030                       # Average percentage of cache occupancy
system.cpu.dcache.tags.occ_task_id_blocks::1024         1024                       # Occupied blocks per task id
system.cpu.dcache.tags.age_task_id_blocks_1024::0          110                       # Occupied blocks per task id
system.cpu.dcache.tags.age_task_id_blocks_1024::1          695                       # Occupied blocks per task id
system.cpu.dcache.tags.age_task_id_blocks_1024::2          219                       # Occupied blocks per task id
system.cpu.dcache.tags.occ_task_id_percent::1024            1                       # Percentage of cache occupancy per task id
system.cpu.dcache.tags.tag_accesses           9210564                       # Number of tag accesses
system.cpu.dcache.tags.data_accesses          9210564                       # Number of data accesses
system.cpu.dcache.tags.power_state.pwrStateResidencyTicks::UNDEFINED   3975991000                       # Cumulative time (in ticks) in various power states
system.cpu.power_state.pwrStateResidencyTicks::ON   3975991000                       # Cumulative time (in ticks) in various power states

---------- End Simulation Statistics   ----------
