
---------- Begin Simulation Statistics ----------
final_tick                                 7579093500                       # Number of ticks from beginning of simulation (restored from checkpoints and never reset)
host_inst_rate                                 138928                       # Simulator instruction rate (inst/s)
host_mem_usage                                 862736                       # Number of bytes of host memory used
host_op_rate                                   143294                       # Simulator op (including micro ops) rate (op/s)
host_seconds                                    71.98                       # Real time elapsed on the host
host_tick_rate                              105294751                       # Simulator tick rate (ticks/s)
sim_freq                                 1000000000000                       # Frequency of simulated ticks
sim_insts                                    10000000                       # Number of instructions simulated
sim_ops                                      10314289                       # Number of ops (including micro ops) simulated
sim_seconds                                  0.007579                       # Number of seconds simulated
sim_ticks                                  7579093500                       # Number of ticks simulated
system.cpu.branchPred.BTBCorrect                    0                       # Number of correct BTB predictions (this stat may not work properly.
system.cpu.branchPred.BTBHitPct             99.850328                       # BTB Hit Percentage
system.cpu.branchPred.BTBHits                  711827                       # Number of BTB hits
system.cpu.branchPred.BTBLookups               712894                       # Number of BTB lookups
system.cpu.branchPred.RASInCorrect                  2                       # Number of incorrect RAS predictions.
system.cpu.branchPred.condIncorrect              5122                       # Number of conditional branches incorrect
system.cpu.branchPred.condPredicted            382356                       # Number of conditional branches predicted
system.cpu.branchPred.indirectHits                 84                       # Number of indirect target hits.
system.cpu.branchPred.indirectLookups             273                       # Number of indirect predictor lookups.
system.cpu.branchPred.indirectMisses              189                       # Number of indirect misses.
system.cpu.branchPred.lookups                 1404504                       # Number of BP lookups
system.cpu.branchPred.usedRAS                  505751                       # Number of times the RAS was used to get a target.
system.cpu.branchPredindirectMispredicted           94                       # Number of mispredicted indirect branches.
system.cpu.cc_regfile_reads                    614817                       # number of cc regfile reads
system.cpu.cc_regfile_writes                   614577                       # number of cc regfile writes
system.cpu.commit.amos                              0                       # Number of atomic instructions committed
system.cpu.commit.branchMispredicts              4818                       # The number of times a branch was mispredicted
system.cpu.commit.branches                     864158                       # Number of branches committed
system.cpu.commit.bw_lim_events                652264                       # number cycles where commit BW limit reached
system.cpu.commit.commitNonSpecStalls             169                       # The number of times commit has been forced to stall to communicate backwards
system.cpu.commit.commitSquashedInsts         5167117                       # The number of squashed insts skipped by commit
system.cpu.commit.committedInsts             10003896                       # Number of instructions committed
system.cpu.commit.committedOps               10318185                       # Number of ops (including micro ops) committed
system.cpu.commit.committed_per_cycle::samples     14442335                       # Number of insts commited each cycle
system.cpu.commit.committed_per_cycle::mean     0.714440                       # Number of insts commited each cycle
system.cpu.commit.committed_per_cycle::stdev     1.817276                       # Number of insts commited each cycle
system.cpu.commit.committed_per_cycle::underflows            0      0.00%      0.00% # Number of insts commited each cycle
system.cpu.commit.committed_per_cycle::0     10748493     74.42%     74.42% # Number of insts commited each cycle
system.cpu.commit.committed_per_cycle::1      2045313     14.16%     88.59% # Number of insts commited each cycle
system.cpu.commit.committed_per_cycle::2       535493      3.71%     92.29% # Number of insts commited each cycle
system.cpu.commit.committed_per_cycle::3       112606      0.78%     93.07% # Number of insts commited each cycle
system.cpu.commit.committed_per_cycle::4       201429      1.39%     94.47% # Number of insts commited each cycle
system.cpu.commit.committed_per_cycle::5        69383      0.48%     94.95% # Number of insts commited each cycle
system.cpu.commit.committed_per_cycle::6        48153      0.33%     95.28% # Number of insts commited each cycle
system.cpu.commit.committed_per_cycle::7        29201      0.20%     95.48% # Number of insts commited each cycle
system.cpu.commit.committed_per_cycle::8       652264      4.52%    100.00% # Number of insts commited each cycle
system.cpu.commit.committed_per_cycle::overflows            0      0.00%    100.00% # Number of insts commited each cycle
system.cpu.commit.committed_per_cycle::min_value            0                       # Number of insts commited each cycle
system.cpu.commit.committed_per_cycle::max_value            8                       # Number of insts commited each cycle
system.cpu.commit.committed_per_cycle::total     14442335                       # Number of insts commited each cycle
system.cpu.commit.fp_insts                          0                       # Number of committed floating point instructions.
system.cpu.commit.function_calls               309623                       # Number of function calls committed.
system.cpu.commit.int_insts                  10148299                       # Number of committed integer instructions.
system.cpu.commit.loads                       1601695                       # Number of loads committed
system.cpu.commit.membars                         142                       # Number of memory barriers committed
system.cpu.commit.op_class_0::No_OpClass           35      0.00%      0.00% # Class of committed instruction
system.cpu.commit.op_class_0::IntAlu          5154710     49.96%     49.96% # Class of committed instruction
system.cpu.commit.op_class_0::IntMult         1623084     15.73%     65.69% # Class of committed instruction
system.cpu.commit.op_class_0::IntDiv           618291      5.99%     71.68% # Class of committed instruction
system.cpu.commit.op_class_0::FloatAdd              0      0.00%     71.68% # Class of committed instruction
system.cpu.commit.op_class_0::FloatCmp              0      0.00%     71.68% # Class of committed instruction
system.cpu.commit.op_class_0::FloatCvt              0      0.00%     71.68% # Class of committed instruction
system.cpu.commit.op_class_0::FloatMult             0      0.00%     71.68% # Class of committed instruction
system.cpu.commit.op_class_0::FloatMultAcc            0      0.00%     71.68% # Class of committed instruction
system.cpu.commit.op_class_0::FloatDiv              0      0.00%     71.68% # Class of committed instruction
system.cpu.commit.op_class_0::FloatMisc             0      0.00%     71.68% # Class of committed instruction
system.cpu.commit.op_class_0::FloatSqrt             0      0.00%     71.68% # Class of committed instruction
system.cpu.commit.op_class_0::SimdAdd              83      0.00%     71.68% # Class of committed instruction
system.cpu.commit.op_class_0::SimdAddAcc            0      0.00%     71.68% # Class of committed instruction
system.cpu.commit.op_class_0::SimdAlu             138      0.00%     71.68% # Class of committed instruction
system.cpu.commit.op_class_0::SimdCmp             140      0.00%     71.68% # Class of committed instruction
system.cpu.commit.op_class_0::SimdCvt               0      0.00%     71.68% # Class of committed instruction
system.cpu.commit.op_class_0::SimdMisc            103      0.00%     71.68% # Class of committed instruction
system.cpu.commit.op_class_0::SimdMult              0      0.00%     71.68% # Class of committed instruction
system.cpu.commit.op_class_0::SimdMultAcc            0      0.00%     71.68% # Class of committed instruction
system.cpu.commit.op_class_0::SimdShift             0      0.00%     71.68% # Class of committed instruction
system.cpu.commit.op_class_0::SimdShiftAcc            0      0.00%     71.68% # Class of committed instruction
system.cpu.commit.op_class_0::SimdDiv               0      0.00%     71.68% # Class of committed instruction
system.cpu.commit.op_class_0::SimdSqrt              0      0.00%     71.68% # Class of committed instruction
system.cpu.commit.op_class_0::SimdFloatAdd            0      0.00%     71.68% # Class of committed instruction
system.cpu.commit.op_class_0::SimdFloatAlu            0      0.00%     71.68% # Class of committed instruction
system.cpu.commit.op_class_0::SimdFloatCmp            0      0.00%     71.68% # Class of committed instruction
system.cpu.commit.op_class_0::SimdFloatCvt            0      0.00%     71.68% # Class of committed instruction
system.cpu.commit.op_class_0::SimdFloatDiv            0      0.00%     71.68% # Class of committed instruction
system.cpu.commit.op_class_0::SimdFloatMisc            0      0.00%     71.68% # Class of committed instruction
system.cpu.commit.op_class_0::SimdFloatMult            0      0.00%     71.68% # Class of committed instruction
system.cpu.commit.op_class_0::SimdFloatMultAcc            0      0.00%     71.68% # Class of committed instruction
system.cpu.commit.op_class_0::SimdFloatSqrt            0      0.00%     71.68% # Class of committed instruction
system.cpu.commit.op_class_0::SimdReduceAdd            0      0.00%     71.68% # Class of committed instruction
system.cpu.commit.op_class_0::SimdReduceAlu            0      0.00%     71.68% # Class of committed instruction
system.cpu.commit.op_class_0::SimdReduceCmp            0      0.00%     71.68% # Class of committed instruction
system.cpu.commit.op_class_0::SimdFloatReduceAdd            0      0.00%     71.68% # Class of committed instruction
system.cpu.commit.op_class_0::SimdFloatReduceCmp            0      0.00%     71.68% # Class of committed instruction
system.cpu.commit.op_class_0::SimdAes               0      0.00%     71.68% # Class of committed instruction
system.cpu.commit.op_class_0::SimdAesMix            0      0.00%     71.68% # Class of committed instruction
system.cpu.commit.op_class_0::SimdSha1Hash            0      0.00%     71.68% # Class of committed instruction
system.cpu.commit.op_class_0::SimdSha1Hash2            0      0.00%     71.68% # Class of committed instruction
system.cpu.commit.op_class_0::SimdSha256Hash            0      0.00%     71.68% # Class of committed instruction
system.cpu.commit.op_class_0::SimdSha256Hash2            0      0.00%     71.68% # Class of committed instruction
system.cpu.commit.op_class_0::SimdShaSigma2            0      0.00%     71.68% # Class of committed instruction
system.cpu.commit.op_class_0::SimdShaSigma3            0      0.00%     71.68% # Class of committed instruction
system.cpu.commit.op_class_0::SimdPredAlu            0      0.00%     71.68% # Class of committed instruction
system.cpu.commit.op_class_0::MemRead         1601695     15.52%     87.21% # Class of committed instruction
system.cpu.commit.op_class_0::MemWrite        1319906     12.79%    100.00% # Class of committed instruction
system.cpu.commit.op_class_0::FloatMemRead            0      0.00%    100.00% # Class of committed instruction
system.cpu.commit.op_class_0::FloatMemWrite            0      0.00%    100.00% # Class of committed instruction
system.cpu.commit.op_class_0::IprAccess             0      0.00%    100.00% # Class of committed instruction
system.cpu.commit.op_class_0::InstPrefetch            0      0.00%    100.00% # Class of committed instruction
system.cpu.commit.op_class_0::total          10318185                       # Class of committed instruction
system.cpu.commit.refs                        2921601                       # Number of memory references committed
system.cpu.commit.swp_count                         0                       # Number of s/w prefetches committed
system.cpu.commit.vec_insts                      1073                       # Number of committed Vector instructions.
system.cpu.committedInsts                    10000000                       # Number of Instructions Simulated
system.cpu.committedOps                      10314289                       # Number of Ops (including micro ops) Simulated
system.cpu.cpi                               1.515819                       # CPI: Cycles Per Instruction
system.cpu.cpi_total                         1.515819                       # CPI: Total CPI of All Threads
system.cpu.decode.BlockedCycles              11261931                       # Number of cycles decode is blocked
system.cpu.decode.BranchMispred                   306                       # Number of times decode detected a branch misprediction
system.cpu.decode.BranchResolved               698815                       # Number of times decode resolved a branch
system.cpu.decode.DecodedInsts               17479758                       # Number of instructions handled by decode
system.cpu.decode.IdleCycles                  1168851                       # Number of cycles decode is idle
system.cpu.decode.RunCycles                   2095050                       # Number of cycles decode is running
system.cpu.decode.SquashCycles                  43537                       # Number of cycles decode is squashing
system.cpu.decode.SquashedInsts                  1020                       # Number of squashed instructions handled by decode
system.cpu.decode.UnblockCycles                538623                       # Number of cycles decode is unblocking
system.cpu.dtb.accesses                             0                       # DTB accesses
system.cpu.dtb.align_faults                         0                       # Number of TLB faults due to alignment restrictions
system.cpu.dtb.domain_faults                        0                       # Number of TLB faults due to domain restrictions
system.cpu.dtb.flush_entries                        0                       # Number of entries that have been flushed from TLB
system.cpu.dtb.flush_tlb                            0                       # Number of times complete TLB was flushed
system.cpu.dtb.flush_tlb_asid                       0                       # Number of times TLB was flushed by ASID
system.cpu.dtb.flush_tlb_mva                        0                       # Number of times TLB was flushed by MVA
system.cpu.dtb.flush_tlb_mva_asid                   0                       # Number of times TLB was flushed by MVA & ASID
system.cpu.dtb.hits                                 0                       # DTB hits
system.cpu.dtb.inst_accesses                        0                       # ITB inst accesses
system.cpu.dtb.inst_hits                            0                       # ITB inst hits
system.cpu.dtb.inst_misses                          0                       # ITB inst misses
system.cpu.dtb.misses                               0                       # DTB misses
system.cpu.dtb.perms_faults                         0                       # Number of TLB faults due to permissions restrictions
system.cpu.dtb.prefetch_faults                      0                       # Number of TLB faults due to prefetch
system.cpu.dtb.read_accesses                        0                       # DTB read accesses
system.cpu.dtb.read_hits                            0                       # DTB read hits
system.cpu.dtb.read_misses                          0                       # DTB read misses
system.cpu.dtb.stage2_mmu.stage2_tlb.accesses            0                       # DTB accesses
system.cpu.dtb.stage2_mmu.stage2_tlb.align_faults            0                       # Number of TLB faults due to alignment restrictions
system.cpu.dtb.stage2_mmu.stage2_tlb.domain_faults            0                       # Number of TLB faults due to domain restrictions
system.cpu.dtb.stage2_mmu.stage2_tlb.flush_entries            0                       # Number of entries that have been flushed from TLB
system.cpu.dtb.stage2_mmu.stage2_tlb.flush_tlb            0                       # Number of times complete TLB was flushed
system.cpu.dtb.stage2_mmu.stage2_tlb.flush_tlb_asid            0                       # Number of times TLB was flushed by ASID
system.cpu.dtb.stage2_mmu.stage2_tlb.flush_tlb_mva            0                       # Number of times TLB was flushed by MVA
system.cpu.dtb.stage2_mmu.stage2_tlb.flush_tlb_mva_asid            0                       # Number of times TLB was flushed by MVA & ASID
system.cpu.dtb.stage2_mmu.stage2_tlb.hits            0                       # DTB hits
system.cpu.dtb.stage2_mmu.stage2_tlb.inst_accesses            0                       # ITB inst accesses
system.cpu.dtb.stage2_mmu.stage2_tlb.inst_hits            0                       # ITB inst hits
system.cpu.dtb.stage2_mmu.stage2_tlb.inst_misses            0                       # ITB inst misses
system.cpu.dtb.stage2_mmu.stage2_tlb.misses            0                       # DTB misses
system.cpu.dtb.stage2_mmu.stage2_tlb.perms_faults            0                       # Number of TLB faults due to permissions restrictions
system.cpu.dtb.stage2_mmu.stage2_tlb.prefetch_faults            0                       # Number of TLB faults due to prefetch
system.cpu.dtb.stage2_mmu.stage2_tlb.read_accesses            0                       # DTB read accesses
system.cpu.dtb.stage2_mmu.stage2_tlb.read_hits            0                       # DTB read hits
system.cpu.dtb.stage2_mmu.stage2_tlb.read_misses            0                       # DTB read misses
system.cpu.dtb.stage2_mmu.stage2_tlb.walker.walkRequestOrigin_Requested::Data            0                       # Table walker requests started/completed, data/inst
system.cpu.dtb.stage2_mmu.stage2_tlb.walker.walkRequestOrigin_Requested::Inst            0                       # Table walker requests started/completed, data/inst
system.cpu.dtb.stage2_mmu.stage2_tlb.walker.walkRequestOrigin_Requested::total            0                       # Table walker requests started/completed, data/inst
system.cpu.dtb.stage2_mmu.stage2_tlb.walker.walkRequestOrigin_Completed::Data            0                       # Table walker requests started/completed, data/inst
system.cpu.dtb.stage2_mmu.stage2_tlb.walker.walkRequestOrigin_Completed::Inst            0                       # Table walker requests started/completed, data/inst
system.cpu.dtb.stage2_mmu.stage2_tlb.walker.walkRequestOrigin_Completed::total            0                       # Table walker requests started/completed, data/inst
system.cpu.dtb.stage2_mmu.stage2_tlb.walker.walkRequestOrigin::total            0                       # Table walker requests started/completed, data/inst
system.cpu.dtb.stage2_mmu.stage2_tlb.walker.walks            0                       # Table walker walks requested
system.cpu.dtb.stage2_mmu.stage2_tlb.write_accesses            0                       # DTB write accesses
system.cpu.dtb.stage2_mmu.stage2_tlb.write_hits            0                       # DTB write hits
system.cpu.dtb.stage2_mmu.stage2_tlb.write_misses            0                       # DTB write misses
system.cpu.dtb.walker.walkRequestOrigin_Requested::Data            0                       # Table walker requests started/completed, data/inst
system.cpu.dtb.walker.walkRequestOrigin_Requested::Inst            0                       # Table walker requests started/completed, data/inst
system.cpu.dtb.walker.walkRequestOrigin_Requested::total            0                       # Table walker requests started/completed, data/inst
system.cpu.dtb.walker.walkRequestOrigin_Completed::Data            0                       # Table walker requests started/completed, data/inst
system.cpu.dtb.walker.walkRequestOrigin_Completed::Inst            0                       # Table walker requests started/completed, data/inst
system.cpu.dtb.walker.walkRequestOrigin_Completed::total            0                       # Table walker requests started/completed, data/inst
system.cpu.dtb.walker.walkRequestOrigin::total            0                       # Table walker requests started/completed, data/inst
system.cpu.dtb.walker.walks                         0                       # Table walker walks requested
system.cpu.dtb.write_accesses                       0                       # DTB write accesses
system.cpu.dtb.write_hits                           0                       # DTB write hits
system.cpu.dtb.write_misses                         0                       # DTB write misses
system.cpu.fetch.Branches                     1404504                       # Number of branches that fetch encountered
system.cpu.fetch.CacheLines                   2159849                       # Number of cache lines fetched
system.cpu.fetch.Cycles                      12853455                       # Number of cycles fetch has run and was not squashing or blocked
system.cpu.fetch.IcacheSquashes                 22371                       # Number of outstanding Icache misses that were squashed
system.cpu.fetch.IcacheWaitRetryStallCycles           22                       # Number of stall cycles due to full MSHR
system.cpu.fetch.Insts                       17671641                       # Number of instructions fetch has processed
system.cpu.fetch.MiscStallCycles                    2                       # Number of cycles fetch has spent waiting on interrupts, or bad addresses, or out of MSHRs
system.cpu.fetch.SquashCycles                   87682                       # Number of cycles fetch has spent squashing
system.cpu.fetch.branchRate                  0.092656                       # Number of branch fetches per cycle
system.cpu.fetch.icacheStallCycles            2210672                       # Number of cycles fetch is stalled on an Icache miss
system.cpu.fetch.predictedBranches            1217662                       # Number of branches that fetch has predicted taken
system.cpu.fetch.rate                        1.165815                       # Number of inst fetches per cycle
system.cpu.fetch.rateDist::samples           15107992                       # Number of instructions fetched each cycle (Total)
system.cpu.fetch.rateDist::mean              1.206525                       # Number of instructions fetched each cycle (Total)
system.cpu.fetch.rateDist::stdev             2.559452                       # Number of instructions fetched each cycle (Total)
system.cpu.fetch.rateDist::underflows               0      0.00%      0.00% # Number of instructions fetched each cycle (Total)
system.cpu.fetch.rateDist::0                 11676453     77.29%     77.29% # Number of instructions fetched each cycle (Total)
system.cpu.fetch.rateDist::1                   322028      2.13%     79.42% # Number of instructions fetched each cycle (Total)
system.cpu.fetch.rateDist::2                   551845      3.65%     83.07% # Number of instructions fetched each cycle (Total)
system.cpu.fetch.rateDist::3                   220324      1.46%     84.53% # Number of instructions fetched each cycle (Total)
system.cpu.fetch.rateDist::4                   207380      1.37%     85.90% # Number of instructions fetched each cycle (Total)
system.cpu.fetch.rateDist::5                   361785      2.39%     88.30% # Number of instructions fetched each cycle (Total)
system.cpu.fetch.rateDist::6                   279712      1.85%     90.15% # Number of instructions fetched each cycle (Total)
system.cpu.fetch.rateDist::7                    82954      0.55%     90.70% # Number of instructions fetched each cycle (Total)
system.cpu.fetch.rateDist::8                  1405511      9.30%    100.00% # Number of instructions fetched each cycle (Total)
system.cpu.fetch.rateDist::overflows                0      0.00%    100.00% # Number of instructions fetched each cycle (Total)
system.cpu.fetch.rateDist::min_value                0                       # Number of instructions fetched each cycle (Total)
system.cpu.fetch.rateDist::max_value                8                       # Number of instructions fetched each cycle (Total)
system.cpu.fetch.rateDist::total             15107992                       # Number of instructions fetched each cycle (Total)
system.cpu.idleCycles                           50196                       # Total number of cycles that the CPU has spent unscheduled due to idling
system.cpu.iew.branchMispredicts                 4915                       # Number of branch mispredicts detected at execute
system.cpu.iew.exec_branches                  1294503                       # Number of branches executed
system.cpu.iew.exec_nop                          3936                       # number of nop insts executed
system.cpu.iew.exec_rate                     1.000926                       # Inst execution rate
system.cpu.iew.exec_refs                      4728272                       # number of memory reference insts executed
system.cpu.iew.exec_stores                    1976846                       # Number of stores executed
system.cpu.iew.exec_swp                             0                       # number of swp insts executed
system.cpu.iew.iewBlockCycles                 3042938                       # Number of cycles IEW is blocking
system.cpu.iew.iewDispLoadInsts               2767350                       # Number of dispatched load instructions
system.cpu.iew.iewDispNonSpecInsts                219                       # Number of dispatched non-speculative instructions
system.cpu.iew.iewDispSquashedInsts               497                       # Number of squashed instructions skipped by dispatch
system.cpu.iew.iewDispStoreInsts              2261443                       # Number of dispatched store instructions
system.cpu.iew.iewDispatchedInsts            17017488                       # Number of instructions dispatched to IQ
system.cpu.iew.iewExecLoadInsts               2751426                       # Number of load instructions executed
system.cpu.iew.iewExecSquashedInsts             80166                       # Number of squashed instructions skipped in execute
system.cpu.iew.iewExecutedInsts              15172220                       # Number of executed instructions
system.cpu.iew.iewIQFullEvents                 213911                       # Number of times the IQ has become full, causing a stall
system.cpu.iew.iewIdleCycles                        0                       # Number of cycles IEW is idle
system.cpu.iew.iewLSQFullEvents                865805                       # Number of times the LSQ has become full, causing a stall
system.cpu.iew.iewSquashCycles                  43537                       # Number of cycles IEW is squashing
system.cpu.iew.iewUnblockCycles               1108504                       # Number of cycles IEW is unblocking
system.cpu.iew.lsq.thread0.blockedLoads             0                       # Number of blocked loads due to partial load-store forwarding
system.cpu.iew.lsq.thread0.cacheBlocked         37547                       # Number of times an access to memory failed due to the cache being blocked
system.cpu.iew.lsq.thread0.forwLoads              300                       # Number of loads that had data forwarded from stores
system.cpu.iew.lsq.thread0.ignoredResponses           10                       # Number of memory responses ignored because the instruction is squashed
system.cpu.iew.lsq.thread0.invAddrLoads             0                       # Number of loads ignored due to an invalid address
system.cpu.iew.lsq.thread0.invAddrSwpfs             0                       # Number of software prefetches ignored due to an invalid address
system.cpu.iew.lsq.thread0.memOrderViolation           41                       # Number of memory ordering violations
system.cpu.iew.lsq.thread0.rescheduledLoads          123                       # Number of loads that were rescheduled
system.cpu.iew.lsq.thread0.squashedLoads      1165635                       # Number of loads squashed
system.cpu.iew.lsq.thread0.squashedStores       941518                       # Number of stores squashed
system.cpu.iew.memOrderViolationEvents             41                       # Number of memory order violations
system.cpu.iew.predictedNotTakenIncorrect          753                       # Number of branches that were predicted not taken incorrectly
system.cpu.iew.predictedTakenIncorrect           4162                       # Number of branches that were predicted taken incorrectly
system.cpu.iew.wb_consumers                  16207923                       # num instructions consuming a value
system.cpu.iew.wb_count                      14507314                       # cumulative count of insts written-back
system.cpu.iew.wb_fanout                     0.646464                       # average fanout of values written-back
system.cpu.iew.wb_producers                  10477839                       # num instructions producing a value
system.cpu.iew.wb_rate                       0.957061                       # insts written-back per cycle
system.cpu.iew.wb_sent                       15163693                       # cumulative count of insts sent to commit
system.cpu.int_regfile_reads                 22639865                       # number of integer regfile reads
system.cpu.int_regfile_writes                12631441                       # number of integer regfile writes
system.cpu.ipc                               0.659709                       # IPC: Instructions Per Cycle
system.cpu.ipc_total                         0.659709                       # IPC: Total IPC of All Threads
system.cpu.iq.FU_type_0::No_OpClass                38      0.00%      0.00% # Type of FU issued
system.cpu.iq.FU_type_0::IntAlu               7768025     50.93%     50.93% # Type of FU issued
system.cpu.iq.FU_type_0::IntMult              2047661     13.43%     64.36% # Type of FU issued
system.cpu.iq.FU_type_0::IntDiv                695886      4.56%     68.92% # Type of FU issued
system.cpu.iq.FU_type_0::FloatAdd                   0      0.00%     68.92% # Type of FU issued
system.cpu.iq.FU_type_0::FloatCmp                   0      0.00%     68.92% # Type of FU issued
system.cpu.iq.FU_type_0::FloatCvt                   0      0.00%     68.92% # Type of FU issued
system.cpu.iq.FU_type_0::FloatMult                  0      0.00%     68.92% # Type of FU issued
system.cpu.iq.FU_type_0::FloatMultAcc               0      0.00%     68.92% # Type of FU issued
system.cpu.iq.FU_type_0::FloatDiv                   0      0.00%     68.92% # Type of FU issued
system.cpu.iq.FU_type_0::FloatMisc                  0      0.00%     68.92% # Type of FU issued
system.cpu.iq.FU_type_0::FloatSqrt                  0      0.00%     68.92% # Type of FU issued
system.cpu.iq.FU_type_0::SimdAdd                   90      0.00%     68.92% # Type of FU issued
system.cpu.iq.FU_type_0::SimdAddAcc                 0      0.00%     68.92% # Type of FU issued
system.cpu.iq.FU_type_0::SimdAlu                  150      0.00%     68.92% # Type of FU issued
system.cpu.iq.FU_type_0::SimdCmp                  148      0.00%     68.92% # Type of FU issued
system.cpu.iq.FU_type_0::SimdCvt                    0      0.00%     68.92% # Type of FU issued
system.cpu.iq.FU_type_0::SimdMisc                 109      0.00%     68.92% # Type of FU issued
system.cpu.iq.FU_type_0::SimdMult                   0      0.00%     68.92% # Type of FU issued
system.cpu.iq.FU_type_0::SimdMultAcc                0      0.00%     68.92% # Type of FU issued
system.cpu.iq.FU_type_0::SimdShift                  0      0.00%     68.92% # Type of FU issued
system.cpu.iq.FU_type_0::SimdShiftAcc               0      0.00%     68.92% # Type of FU issued
system.cpu.iq.FU_type_0::SimdDiv                    0      0.00%     68.92% # Type of FU issued
system.cpu.iq.FU_type_0::SimdSqrt                   0      0.00%     68.92% # Type of FU issued
system.cpu.iq.FU_type_0::SimdFloatAdd               0      0.00%     68.92% # Type of FU issued
system.cpu.iq.FU_type_0::SimdFloatAlu               0      0.00%     68.92% # Type of FU issued
system.cpu.iq.FU_type_0::SimdFloatCmp               0      0.00%     68.92% # Type of FU issued
system.cpu.iq.FU_type_0::SimdFloatCvt               0      0.00%     68.92% # Type of FU issued
system.cpu.iq.FU_type_0::SimdFloatDiv               0      0.00%     68.92% # Type of FU issued
system.cpu.iq.FU_type_0::SimdFloatMisc              0      0.00%     68.92% # Type of FU issued
system.cpu.iq.FU_type_0::SimdFloatMult              0      0.00%     68.92% # Type of FU issued
system.cpu.iq.FU_type_0::SimdFloatMultAcc            0      0.00%     68.92% # Type of FU issued
system.cpu.iq.FU_type_0::SimdFloatSqrt              0      0.00%     68.92% # Type of FU issued
system.cpu.iq.FU_type_0::SimdReduceAdd              0      0.00%     68.92% # Type of FU issued
system.cpu.iq.FU_type_0::SimdReduceAlu              0      0.00%     68.92% # Type of FU issued
system.cpu.iq.FU_type_0::SimdReduceCmp              0      0.00%     68.92% # Type of FU issued
system.cpu.iq.FU_type_0::SimdFloatReduceAdd            0      0.00%     68.92% # Type of FU issued
system.cpu.iq.FU_type_0::SimdFloatReduceCmp            0      0.00%     68.92% # Type of FU issued
system.cpu.iq.FU_type_0::SimdAes                    0      0.00%     68.92% # Type of FU issued
system.cpu.iq.FU_type_0::SimdAesMix                 0      0.00%     68.92% # Type of FU issued
system.cpu.iq.FU_type_0::SimdSha1Hash               0      0.00%     68.92% # Type of FU issued
system.cpu.iq.FU_type_0::SimdSha1Hash2              0      0.00%     68.92% # Type of FU issued
system.cpu.iq.FU_type_0::SimdSha256Hash             0      0.00%     68.92% # Type of FU issued
system.cpu.iq.FU_type_0::SimdSha256Hash2            0      0.00%     68.92% # Type of FU issued
system.cpu.iq.FU_type_0::SimdShaSigma2              0      0.00%     68.92% # Type of FU issued
system.cpu.iq.FU_type_0::SimdShaSigma3              0      0.00%     68.92% # Type of FU issued
system.cpu.iq.FU_type_0::SimdPredAlu                0      0.00%     68.92% # Type of FU issued
system.cpu.iq.FU_type_0::MemRead              2763248     18.12%     87.04% # Type of FU issued
system.cpu.iq.FU_type_0::MemWrite             1977034     12.96%    100.00% # Type of FU issued
system.cpu.iq.FU_type_0::FloatMemRead               0      0.00%    100.00% # Type of FU issued
system.cpu.iq.FU_type_0::FloatMemWrite              0      0.00%    100.00% # Type of FU issued
system.cpu.iq.FU_type_0::IprAccess                  0      0.00%    100.00% # Type of FU issued
system.cpu.iq.FU_type_0::InstPrefetch               0      0.00%    100.00% # Type of FU issued
system.cpu.iq.FU_type_0::total               15252389                       # Type of FU issued
system.cpu.iq.fp_alu_accesses                       0                       # Number of floating point alu accesses
system.cpu.iq.fp_inst_queue_reads                   0                       # Number of floating instruction queue reads
system.cpu.iq.fp_inst_queue_wakeup_accesses            0                       # Number of floating instruction queue wakeup accesses
system.cpu.iq.fp_inst_queue_writes                  0                       # Number of floating instruction queue writes
system.cpu.iq.fu_busy_cnt                    12095969                       # FU busy when requested
system.cpu.iq.fu_busy_rate                   0.793054                       # FU busy rate (busy events/executed inst)
system.cpu.iq.fu_full::No_OpClass                   0      0.00%      0.00% # attempts to use FU when none available
system.cpu.iq.fu_full::IntAlu                   72413      0.60%      0.60% # attempts to use FU when none available
system.cpu.iq.fu_full::IntMult                6296551     52.05%     52.65% # attempts to use FU when none available
system.cpu.iq.fu_full::IntDiv                 5533586     45.75%     98.40% # attempts to use FU when none available
system.cpu.iq.fu_full::FloatAdd                     0      0.00%     98.40% # attempts to use FU when none available
system.cpu.iq.fu_full::FloatCmp                     0      0.00%     98.40% # attempts to use FU when none available
system.cpu.iq.fu_full::FloatCvt                     0      0.00%     98.40% # attempts to use FU when none available
system.cpu.iq.fu_full::FloatMult                    0      0.00%     98.40% # attempts to use FU when none available
system.cpu.iq.fu_full::FloatMultAcc                 0      0.00%     98.40% # attempts to use FU when none available
system.cpu.iq.fu_full::FloatDiv                     0      0.00%     98.40% # attempts to use FU when none available
system.cpu.iq.fu_full::FloatMisc                    0      0.00%     98.40% # attempts to use FU when none available
system.cpu.iq.fu_full::FloatSqrt                    0      0.00%     98.40% # attempts to use FU when none available
system.cpu.iq.fu_full::SimdAdd                      0      0.00%     98.40% # attempts to use FU when none available
system.cpu.iq.fu_full::SimdAddAcc                   0      0.00%     98.40% # attempts to use FU when none available
system.cpu.iq.fu_full::SimdAlu                      1      0.00%     98.40% # attempts to use FU when none available
system.cpu.iq.fu_full::SimdCmp                      4      0.00%     98.40% # attempts to use FU when none available
system.cpu.iq.fu_full::SimdCvt                      0      0.00%     98.40% # attempts to use FU when none available
system.cpu.iq.fu_full::SimdMisc                     0      0.00%     98.40% # attempts to use FU when none available
system.cpu.iq.fu_full::SimdMult                     0      0.00%     98.40% # attempts to use FU when none available
system.cpu.iq.fu_full::SimdMultAcc                  0      0.00%     98.40% # attempts to use FU when none available
system.cpu.iq.fu_full::SimdShift                    0      0.00%     98.40% # attempts to use FU when none available
system.cpu.iq.fu_full::SimdShiftAcc                 0      0.00%     98.40% # attempts to use FU when none available
system.cpu.iq.fu_full::SimdDiv                      0      0.00%     98.40% # attempts to use FU when none available
system.cpu.iq.fu_full::SimdSqrt                     0      0.00%     98.40% # attempts to use FU when none available
system.cpu.iq.fu_full::SimdFloatAdd                 0      0.00%     98.40% # attempts to use FU when none available
system.cpu.iq.fu_full::SimdFloatAlu                 0      0.00%     98.40% # attempts to use FU when none available
system.cpu.iq.fu_full::SimdFloatCmp                 0      0.00%     98.40% # attempts to use FU when none available
system.cpu.iq.fu_full::SimdFloatCvt                 0      0.00%     98.40% # attempts to use FU when none available
system.cpu.iq.fu_full::SimdFloatDiv                 0      0.00%     98.40% # attempts to use FU when none available
system.cpu.iq.fu_full::SimdFloatMisc                0      0.00%     98.40% # attempts to use FU when none available
system.cpu.iq.fu_full::SimdFloatMult                0      0.00%     98.40% # attempts to use FU when none available
system.cpu.iq.fu_full::SimdFloatMultAcc             0      0.00%     98.40% # attempts to use FU when none available
system.cpu.iq.fu_full::SimdFloatSqrt                0      0.00%     98.40% # attempts to use FU when none available
system.cpu.iq.fu_full::SimdReduceAdd                0      0.00%     98.40% # attempts to use FU when none available
system.cpu.iq.fu_full::SimdReduceAlu                0      0.00%     98.40% # attempts to use FU when none available
system.cpu.iq.fu_full::SimdReduceCmp                0      0.00%     98.40% # attempts to use FU when none available
system.cpu.iq.fu_full::SimdFloatReduceAdd            0      0.00%     98.40% # attempts to use FU when none available
system.cpu.iq.fu_full::SimdFloatReduceCmp            0      0.00%     98.40% # attempts to use FU when none available
system.cpu.iq.fu_full::SimdAes                      0      0.00%     98.40% # attempts to use FU when none available
system.cpu.iq.fu_full::SimdAesMix                   0      0.00%     98.40% # attempts to use FU when none available
system.cpu.iq.fu_full::SimdSha1Hash                 0      0.00%     98.40% # attempts to use FU when none available
system.cpu.iq.fu_full::SimdSha1Hash2                0      0.00%     98.40% # attempts to use FU when none available
system.cpu.iq.fu_full::SimdSha256Hash               0      0.00%     98.40% # attempts to use FU when none available
system.cpu.iq.fu_full::SimdSha256Hash2              0      0.00%     98.40% # attempts to use FU when none available
system.cpu.iq.fu_full::SimdShaSigma2                0      0.00%     98.40% # attempts to use FU when none available
system.cpu.iq.fu_full::SimdShaSigma3                0      0.00%     98.40% # attempts to use FU when none available
system.cpu.iq.fu_full::SimdPredAlu                  0      0.00%     98.40% # attempts to use FU when none available
system.cpu.iq.fu_full::MemRead                 115738      0.96%     99.36% # attempts to use FU when none available
system.cpu.iq.fu_full::MemWrite                 77676      0.64%    100.00% # attempts to use FU when none available
system.cpu.iq.fu_full::FloatMemRead                 0      0.00%    100.00% # attempts to use FU when none available
system.cpu.iq.fu_full::FloatMemWrite                0      0.00%    100.00% # attempts to use FU when none available
system.cpu.iq.fu_full::IprAccess                    0      0.00%    100.00% # attempts to use FU when none available
system.cpu.iq.fu_full::InstPrefetch                 0      0.00%    100.00% # attempts to use FU when none available
system.cpu.iq.int_alu_accesses               27347040                       # Number of integer alu accesses
system.cpu.iq.int_inst_queue_reads           57976718                       # Number of integer instruction queue reads
system.cpu.iq.int_inst_queue_wakeup_accesses     14506171                       # Number of integer instruction queue wakeup accesses
system.cpu.iq.int_inst_queue_writes          23711143                       # Number of integer instruction queue writes
system.cpu.iq.iqInstsAdded                   17013333                       # Number of instructions added to the IQ (excludes non-spec)
system.cpu.iq.iqInstsIssued                  15252389                       # Number of instructions issued
system.cpu.iq.iqNonSpecInstsAdded                 219                       # Number of non-speculative instructions added to the IQ
system.cpu.iq.iqSquashedInstsExamined         6699127                       # Number of squashed instructions iterated over during squash; mainly for profiling
system.cpu.iq.iqSquashedInstsIssued            270487                       # Number of squashed instructions issued
system.cpu.iq.iqSquashedNonSpecRemoved             50                       # Number of squashed non-spec instructions that were removed
system.cpu.iq.iqSquashedOperandsExamined      5147226                       # Number of squashed operands that are examined and possibly removed from graph
system.cpu.iq.issued_per_cycle::samples      15107992                       # Number of insts issued each cycle
system.cpu.iq.issued_per_cycle::mean         1.009558                       # Number of insts issued each cycle
system.cpu.iq.issued_per_cycle::stdev        1.614312                       # Number of insts issued each cycle
system.cpu.iq.issued_per_cycle::underflows            0      0.00%      0.00% # Number of insts issued each cycle
system.cpu.iq.issued_per_cycle::0             8910107     58.98%     58.98% # Number of insts issued each cycle
system.cpu.iq.issued_per_cycle::1             2243228     14.85%     73.82% # Number of insts issued each cycle
system.cpu.iq.issued_per_cycle::2             1805689     11.95%     85.78% # Number of insts issued each cycle
system.cpu.iq.issued_per_cycle::3              790779      5.23%     91.01% # Number of insts issued each cycle
system.cpu.iq.issued_per_cycle::4              514780      3.41%     94.42% # Number of insts issued each cycle
system.cpu.iq.issued_per_cycle::5              382136      2.53%     96.95% # Number of insts issued each cycle
system.cpu.iq.issued_per_cycle::6              196678      1.30%     98.25% # Number of insts issued each cycle
system.cpu.iq.issued_per_cycle::7              241182      1.60%     99.85% # Number of insts issued each cycle
system.cpu.iq.issued_per_cycle::8               23413      0.15%    100.00% # Number of insts issued each cycle
system.cpu.iq.issued_per_cycle::overflows            0      0.00%    100.00% # Number of insts issued each cycle
system.cpu.iq.issued_per_cycle::min_value            0                       # Number of insts issued each cycle
system.cpu.iq.issued_per_cycle::max_value            8                       # Number of insts issued each cycle
system.cpu.iq.issued_per_cycle::total        15107992                       # Number of insts issued each cycle
system.cpu.iq.rate                           1.006215                       # Inst issue rate
system.cpu.iq.vec_alu_accesses                   1280                       # Number of vector alu accesses
system.cpu.iq.vec_inst_queue_reads               2505                       # Number of vector instruction queue reads
system.cpu.iq.vec_inst_queue_wakeup_accesses         1143                       # Number of vector instruction queue wakeup accesses
system.cpu.iq.vec_inst_queue_writes              1575                       # Number of vector instruction queue writes
system.cpu.itb.accesses                             0                       # DTB accesses
system.cpu.itb.align_faults                         0                       # Number of TLB faults due to alignment restrictions
system.cpu.itb.domain_faults                        0                       # Number of TLB faults due to domain restrictions
system.cpu.itb.flush_entries                        0                       # Number of entries that have been flushed from TLB
system.cpu.itb.flush_tlb                            0                       # Number of times complete TLB was flushed
system.cpu.itb.flush_tlb_asid                       0                       # Number of times TLB was flushed by ASID
system.cpu.itb.flush_tlb_mva                        0                       # Number of times TLB was flushed by MVA
system.cpu.itb.flush_tlb_mva_asid                   0                       # Number of times TLB was flushed by MVA & ASID
system.cpu.itb.hits                                 0                       # DTB hits
system.cpu.itb.inst_accesses                        0                       # ITB inst accesses
system.cpu.itb.inst_hits                            0                       # ITB inst hits
system.cpu.itb.inst_misses                          0                       # ITB inst misses
system.cpu.itb.misses                               0                       # DTB misses
system.cpu.itb.perms_faults                         0                       # Number of TLB faults due to permissions restrictions
system.cpu.itb.prefetch_faults                      0                       # Number of TLB faults due to prefetch
system.cpu.itb.read_accesses                        0                       # DTB read accesses
system.cpu.itb.read_hits                            0                       # DTB read hits
system.cpu.itb.read_misses                          0                       # DTB read misses
system.cpu.itb.stage2_mmu.stage2_tlb.accesses            0                       # DTB accesses
system.cpu.itb.stage2_mmu.stage2_tlb.align_faults            0                       # Number of TLB faults due to alignment restrictions
system.cpu.itb.stage2_mmu.stage2_tlb.domain_faults            0                       # Number of TLB faults due to domain restrictions
system.cpu.itb.stage2_mmu.stage2_tlb.flush_entries            0                       # Number of entries that have been flushed from TLB
system.cpu.itb.stage2_mmu.stage2_tlb.flush_tlb            0                       # Number of times complete TLB was flushed
system.cpu.itb.stage2_mmu.stage2_tlb.flush_tlb_asid            0                       # Number of times TLB was flushed by ASID
system.cpu.itb.stage2_mmu.stage2_tlb.flush_tlb_mva            0                       # Number of times TLB was flushed by MVA
system.cpu.itb.stage2_mmu.stage2_tlb.flush_tlb_mva_asid            0                       # Number of times TLB was flushed by MVA & ASID
system.cpu.itb.stage2_mmu.stage2_tlb.hits            0                       # DTB hits
system.cpu.itb.stage2_mmu.stage2_tlb.inst_accesses            0                       # ITB inst accesses
system.cpu.itb.stage2_mmu.stage2_tlb.inst_hits            0                       # ITB inst hits
system.cpu.itb.stage2_mmu.stage2_tlb.inst_misses            0                       # ITB inst misses
system.cpu.itb.stage2_mmu.stage2_tlb.misses            0                       # DTB misses
system.cpu.itb.stage2_mmu.stage2_tlb.perms_faults            0                       # Number of TLB faults due to permissions restrictions
system.cpu.itb.stage2_mmu.stage2_tlb.prefetch_faults            0                       # Number of TLB faults due to prefetch
system.cpu.itb.stage2_mmu.stage2_tlb.read_accesses            0                       # DTB read accesses
system.cpu.itb.stage2_mmu.stage2_tlb.read_hits            0                       # DTB read hits
system.cpu.itb.stage2_mmu.stage2_tlb.read_misses            0                       # DTB read misses
system.cpu.itb.stage2_mmu.stage2_tlb.walker.walkRequestOrigin_Requested::Data            0                       # Table walker requests started/completed, data/inst
system.cpu.itb.stage2_mmu.stage2_tlb.walker.walkRequestOrigin_Requested::Inst            0                       # Table walker requests started/completed, data/inst
system.cpu.itb.stage2_mmu.stage2_tlb.walker.walkRequestOrigin_Requested::total            0                       # Table walker requests started/completed, data/inst
system.cpu.itb.stage2_mmu.stage2_tlb.walker.walkRequestOrigin_Completed::Data            0                       # Table walker requests started/completed, data/inst
system.cpu.itb.stage2_mmu.stage2_tlb.walker.walkRequestOrigin_Completed::Inst            0                       # Table walker requests started/completed, data/inst
system.cpu.itb.stage2_mmu.stage2_tlb.walker.walkRequestOrigin_Completed::total            0                       # Table walker requests started/completed, data/inst
system.cpu.itb.stage2_mmu.stage2_tlb.walker.walkRequestOrigin::total            0                       # Table walker requests started/completed, data/inst
system.cpu.itb.stage2_mmu.stage2_tlb.walker.walks            0                       # Table walker walks requested
system.cpu.itb.stage2_mmu.stage2_tlb.write_accesses            0                       # DTB write accesses
system.cpu.itb.stage2_mmu.stage2_tlb.write_hits            0                       # DTB write hits
system.cpu.itb.stage2_mmu.stage2_tlb.write_misses            0                       # DTB write misses
system.cpu.itb.walker.walkRequestOrigin_Requested::Data            0                       # Table walker requests started/completed, data/inst
system.cpu.itb.walker.walkRequestOrigin_Requested::Inst            0                       # Table walker requests started/completed, data/inst
system.cpu.itb.walker.walkRequestOrigin_Requested::total            0                       # Table walker requests started/completed, data/inst
system.cpu.itb.walker.walkRequestOrigin_Completed::Data            0                       # Table walker requests started/completed, data/inst
system.cpu.itb.walker.walkRequestOrigin_Completed::Inst            0                       # Table walker requests started/completed, data/inst
system.cpu.itb.walker.walkRequestOrigin_Completed::total            0                       # Table walker requests started/completed, data/inst
system.cpu.itb.walker.walkRequestOrigin::total            0                       # Table walker requests started/completed, data/inst
system.cpu.itb.walker.walks                         0                       # Table walker walks requested
system.cpu.itb.write_accesses                       0                       # DTB write accesses
system.cpu.itb.write_hits                           0                       # DTB write hits
system.cpu.itb.write_misses                         0                       # DTB write misses
system.cpu.memDep0.conflictingLoads               270                       # Number of conflicting loads.
system.cpu.memDep0.conflictingStores               90                       # Number of conflicting stores.
system.cpu.memDep0.insertedLoads              2767350                       # Number of loads inserted to the mem dependence unit.
system.cpu.memDep0.insertedStores             2261443                       # Number of stores inserted to the mem dependence unit.
system.cpu.misc_regfile_reads                 9194887                       # number of misc regfile reads
system.cpu.misc_regfile_writes                    569                       # number of misc regfile writes
system.cpu.numCycles                         15158188                       # number of cpu cycles simulated
system.cpu.numWorkItemsCompleted                    0                       # number of work items this cpu completed
system.cpu.numWorkItemsStarted                      0                       # number of work items this cpu started
system.cpu.rename.BlockCycles                 4532926                       # Number of cycles rename is blocking
system.cpu.rename.CommittedMaps               9092211                       # Number of HB maps that are committed
system.cpu.rename.IQFullEvents                1336063                       # Number of times rename has blocked due to IQ full
system.cpu.rename.IdleCycles                  1274574                       # Number of cycles rename is idle
system.cpu.rename.ROBFullEvents                    11                       # Number of times rename has blocked due to ROB full
system.cpu.rename.RenameLookups              27393090                       # Number of register rename lookups that rename has made
system.cpu.rename.RenamedInsts               17221042                       # Number of instructions processed by rename
system.cpu.rename.RenamedOperands            15043993                       # Number of destination operands rename has renamed
system.cpu.rename.RunCycles                   2469447                       # Number of cycles rename is running
system.cpu.rename.SQFullEvents                5949775                       # Number of times rename has blocked due to SQ full
system.cpu.rename.SquashCycles                  43537                       # Number of cycles rename is squashing
system.cpu.rename.UnblockCycles               6775328                       # Number of cycles rename is unblocking
system.cpu.rename.UndoneMaps                  5951662                       # Number of HB maps that are undone due to squashing
system.cpu.rename.int_rename_lookups         26644275                       # Number of integer rename lookups
system.cpu.rename.serializeStallCycles          12180                       # count of cycles rename stalled for serializing inst
system.cpu.rename.serializingInsts                369                       # count of serializing insts renamed
system.cpu.rename.skidInsts                   2008477                       # count of insts added to the skid buffer
system.cpu.rename.tempSerializingInsts            223                       # count of temporary serializing insts renamed
system.cpu.rename.vec_rename_lookups             1686                       # Number of vector rename lookups
system.cpu.rob.rob_reads                     28772390                       # The number of ROB reads
system.cpu.rob.rob_writes                    31636411                       # The number of ROB writes
system.cpu.timesIdled                            1032                       # Number of times that the entire CPU went into an idle state and unscheduled itself
system.cpu.vec_regfile_reads                     1393                       # number of vector regfile reads
system.cpu.vec_regfile_writes                     610                       # number of vector regfile writes
system.cpu.workload.numSyscalls                    26                       # Number of system calls
system.membus.snoop_filter.hit_multi_requests            0                       # Number of requests hitting in the snoop filter with multiple (>1) holders of the requested data.
system.membus.snoop_filter.hit_multi_snoops            0                       # Number of snoops hitting in the snoop filter with multiple (>1) holders of the requested data.
system.membus.snoop_filter.hit_single_requests       152584                       # Number of requests hitting in the snoop filter with a single holder of the requested data.
system.membus.snoop_filter.hit_single_snoops            0                       # Number of snoops hitting in the snoop filter with a single holder of the requested data.
system.membus.snoop_filter.tot_requests        308051                       # Total number of requests made to the snoop filter.
system.membus.snoop_filter.tot_snoops               0                       # Total number of snoops made to the snoop filter.
system.tol2bus.snoop_filter.hit_multi_requests            1                       # Number of requests hitting in the snoop filter with multiple (>1) holders of the requested data.
system.tol2bus.snoop_filter.hit_multi_snoops            0                       # Number of snoops hitting in the snoop filter with multiple (>1) holders of the requested data.
system.tol2bus.snoop_filter.hit_single_requests       155958                       # Number of requests hitting in the snoop filter with a single holder of the requested data.
system.tol2bus.snoop_filter.hit_single_snoops            8                       # Number of snoops hitting in the snoop filter with a single holder of the requested data.
system.tol2bus.snoop_filter.tot_requests       312361                       # Total number of requests made to the snoop filter.
system.tol2bus.snoop_filter.tot_snoops              8                       # Total number of snoops made to the snoop filter.
system.membus.trans_dist::ReadResp                752                       # Transaction distribution
system.membus.trans_dist::WritebackDirty       152545                       # Transaction distribution
system.membus.trans_dist::CleanEvict               39                       # Transaction distribution
system.membus.trans_dist::ReadExReq            154708                       # Transaction distribution
system.membus.trans_dist::ReadExResp           154706                       # Transaction distribution
system.membus.trans_dist::ReadSharedReq           752                       # Transaction distribution
system.membus.trans_dist::InvalidateReq             7                       # Transaction distribution
system.membus.pkt_count_system.l2.mem_side::system.mem_ctrls.port       463509                       # Packet count per connected master and slave (bytes)
system.membus.pkt_count::total                 463509                       # Packet count per connected master and slave (bytes)
system.membus.pkt_size_system.l2.mem_side::system.mem_ctrls.port     19712192                       # Cumulative packet size per connected master and slave (bytes)
system.membus.pkt_size::total                19712192                       # Cumulative packet size per connected master and slave (bytes)
system.membus.snoops                                0                       # Total snoops (count)
system.membus.snoopTraffic                          0                       # Total snoop traffic (bytes)
system.membus.snoop_fanout::samples            155467                       # Request fanout histogram
system.membus.snoop_fanout::mean                    0                       # Request fanout histogram
system.membus.snoop_fanout::stdev                   0                       # Request fanout histogram
system.membus.snoop_fanout::underflows              0      0.00%      0.00% # Request fanout histogram
system.membus.snoop_fanout::0                  155467    100.00%    100.00% # Request fanout histogram
system.membus.snoop_fanout::1                       0      0.00%    100.00% # Request fanout histogram
system.membus.snoop_fanout::overflows               0      0.00%    100.00% # Request fanout histogram
system.membus.snoop_fanout::min_value               0                       # Request fanout histogram
system.membus.snoop_fanout::max_value               0                       # Request fanout histogram
system.membus.snoop_fanout::total              155467                       # Request fanout histogram
system.membus.reqLayer0.occupancy           929783000                       # Layer occupancy (ticks)
system.membus.reqLayer0.utilization              12.3                       # Layer utilization (%)
system.membus.respLayer1.occupancy          811437000                       # Layer occupancy (ticks)
system.membus.respLayer1.utilization             10.7                       # Layer utilization (%)
system.membus.power_state.pwrStateResidencyTicks::UNDEFINED   7579093500                       # Cumulative time (in ticks) in various power states
system.tol2bus.trans_dist::ReadResp              1687                       # Transaction distribution
system.tol2bus.trans_dist::WritebackDirty       307075                       # Transaction distribution
system.tol2bus.trans_dist::WritebackClean         1420                       # Transaction distribution
system.tol2bus.trans_dist::CleanEvict              55                       # Transaction distribution
system.tol2bus.trans_dist::ReadExReq           154709                       # Transaction distribution
system.tol2bus.trans_dist::ReadExResp          154707                       # Transaction distribution
system.tol2bus.trans_dist::ReadCleanReq          1548                       # Transaction distribution
system.tol2bus.trans_dist::ReadSharedReq          139                       # Transaction distribution
system.tol2bus.trans_dist::InvalidateReq            7                       # Transaction distribution
system.tol2bus.trans_dist::InvalidateResp            7                       # Transaction distribution
system.tol2bus.pkt_count_system.cpu.icache.mem_side::system.l2.cpu_side         4516                       # Packet count per connected master and slave (bytes)
system.tol2bus.pkt_count_system.cpu.dcache.mem_side::system.l2.cpu_side       464246                       # Packet count per connected master and slave (bytes)
system.tol2bus.pkt_count::total                468762                       # Packet count per connected master and slave (bytes)
system.tol2bus.pkt_size_system.cpu.icache.mem_side::system.l2.cpu_side       189952                       # Cumulative packet size per connected master and slave (bytes)
system.tol2bus.pkt_size_system.cpu.dcache.mem_side::system.l2.cpu_side     19800064                       # Cumulative packet size per connected master and slave (bytes)
system.tol2bus.pkt_size::total               19990016                       # Cumulative packet size per connected master and slave (bytes)
system.tol2bus.snoops                          152592                       # Total snoops (count)
system.tol2bus.snoopTraffic                   9762880                       # Total snoop traffic (bytes)
system.tol2bus.snoop_fanout::samples           308995                       # Request fanout histogram
system.tol2bus.snoop_fanout::mean            0.000029                       # Request fanout histogram
system.tol2bus.snoop_fanout::stdev           0.005397                       # Request fanout histogram
system.tol2bus.snoop_fanout::underflows             0      0.00%      0.00% # Request fanout histogram
system.tol2bus.snoop_fanout::0                 308986    100.00%    100.00% # Request fanout histogram
system.tol2bus.snoop_fanout::1                      9      0.00%    100.00% # Request fanout histogram
system.tol2bus.snoop_fanout::2                      0      0.00%    100.00% # Request fanout histogram
system.tol2bus.snoop_fanout::overflows              0      0.00%    100.00% # Request fanout histogram
system.tol2bus.snoop_fanout::min_value              0                       # Request fanout histogram
system.tol2bus.snoop_fanout::max_value              1                       # Request fanout histogram
system.tol2bus.snoop_fanout::total             308995                       # Request fanout histogram
system.tol2bus.reqLayer0.occupancy          312130500                       # Layer occupancy (ticks)
system.tol2bus.reqLayer0.utilization              4.1                       # Layer utilization (%)
system.tol2bus.respLayer1.occupancy         232272999                       # Layer occupancy (ticks)
system.tol2bus.respLayer1.utilization             3.1                       # Layer utilization (%)
system.tol2bus.respLayer0.occupancy           2322000                       # Layer occupancy (ticks)
system.tol2bus.respLayer0.utilization             0.0                       # Layer utilization (%)
system.tol2bus.power_state.pwrStateResidencyTicks::UNDEFINED   7579093500                       # Cumulative time (in ticks) in various power states
system.voltage_domain.voltage                       1                       # Voltage in Volts
system.clk_domain.clock                          1000                       # Clock period in ticks
system.l2.demand_hits::.cpu.inst                  935                       # number of demand (read+write) hits
system.l2.demand_hits::.cpu.data                    1                       # number of demand (read+write) hits
system.l2.demand_hits::total                      936                       # number of demand (read+write) hits
system.l2.overall_hits::.cpu.inst                 935                       # number of overall hits
system.l2.overall_hits::.cpu.data                   1                       # number of overall hits
system.l2.overall_hits::total                     936                       # number of overall hits
system.l2.demand_misses::.cpu.inst                613                       # number of demand (read+write) misses
system.l2.demand_misses::.cpu.data             154847                       # number of demand (read+write) misses
system.l2.demand_misses::total                 155460                       # number of demand (read+write) misses
system.l2.overall_misses::.cpu.inst               613                       # number of overall misses
system.l2.overall_misses::.cpu.data            154847                       # number of overall misses
system.l2.overall_misses::total                155460                       # number of overall misses
system.l2.demand_miss_latency::.cpu.inst     48356500                       # number of demand (read+write) miss cycles
system.l2.demand_miss_latency::.cpu.data  13329282500                       # number of demand (read+write) miss cycles
system.l2.demand_miss_latency::total      13377639000                       # number of demand (read+write) miss cycles
system.l2.overall_miss_latency::.cpu.inst     48356500                       # number of overall miss cycles
system.l2.overall_miss_latency::.cpu.data  13329282500                       # number of overall miss cycles
system.l2.overall_miss_latency::total     13377639000                       # number of overall miss cycles
system.l2.demand_accesses::.cpu.inst             1548                       # number of demand (read+write) accesses
system.l2.demand_accesses::.cpu.data           154848                       # number of demand (read+write) accesses
system.l2.demand_accesses::total               156396                       # number of demand (read+write) accesses
system.l2.overall_accesses::.cpu.inst            1548                       # number of overall (read+write) accesses
system.l2.overall_accesses::.cpu.data          154848                       # number of overall (read+write) accesses
system.l2.overall_accesses::total              156396                       # number of overall (read+write) accesses
system.l2.demand_miss_rate::.cpu.inst        0.395995                       # miss rate for demand accesses
system.l2.demand_miss_rate::.cpu.data        0.999994                       # miss rate for demand accesses
system.l2.demand_miss_rate::total            0.994015                       # miss rate for demand accesses
system.l2.overall_miss_rate::.cpu.inst       0.395995                       # miss rate for overall accesses
system.l2.overall_miss_rate::.cpu.data       0.999994                       # miss rate for overall accesses
system.l2.overall_miss_rate::total           0.994015                       # miss rate for overall accesses
system.l2.demand_avg_miss_latency::.cpu.inst 78884.991843                       # average overall miss latency
system.l2.demand_avg_miss_latency::.cpu.data 86080.340594                       # average overall miss latency
system.l2.demand_avg_miss_latency::total 86051.968352                       # average overall miss latency
system.l2.overall_avg_miss_latency::.cpu.inst 78884.991843                       # average overall miss latency
system.l2.overall_avg_miss_latency::.cpu.data 86080.340594                       # average overall miss latency
system.l2.overall_avg_miss_latency::total 86051.968352                       # average overall miss latency
system.l2.blocked_cycles::no_mshrs                  0                       # number of cycles access was blocked
system.l2.blocked_cycles::no_targets                0                       # number of cycles access was blocked
system.l2.blocked::no_mshrs                         0                       # number of cycles access was blocked
system.l2.blocked::no_targets                       0                       # number of cycles access was blocked
system.l2.avg_blocked_cycles::no_mshrs            nan                       # average number of cycles each access was blocked
system.l2.avg_blocked_cycles::no_targets          nan                       # average number of cycles each access was blocked
system.l2.writebacks::.writebacks              152545                       # number of writebacks
system.l2.writebacks::total                    152545                       # number of writebacks
system.l2.demand_mshr_misses::.cpu.inst           613                       # number of demand (read+write) MSHR misses
system.l2.demand_mshr_misses::.cpu.data        154847                       # number of demand (read+write) MSHR misses
system.l2.demand_mshr_misses::total            155460                       # number of demand (read+write) MSHR misses
system.l2.overall_mshr_misses::.cpu.inst          613                       # number of overall MSHR misses
system.l2.overall_mshr_misses::.cpu.data       154847                       # number of overall MSHR misses
system.l2.overall_mshr_misses::total           155460                       # number of overall MSHR misses
system.l2.demand_mshr_miss_latency::.cpu.inst     42226500                       # number of demand (read+write) MSHR miss cycles
system.l2.demand_mshr_miss_latency::.cpu.data  11780832500                       # number of demand (read+write) MSHR miss cycles
system.l2.demand_mshr_miss_latency::total  11823059000                       # number of demand (read+write) MSHR miss cycles
system.l2.overall_mshr_miss_latency::.cpu.inst     42226500                       # number of overall MSHR miss cycles
system.l2.overall_mshr_miss_latency::.cpu.data  11780832500                       # number of overall MSHR miss cycles
system.l2.overall_mshr_miss_latency::total  11823059000                       # number of overall MSHR miss cycles
system.l2.demand_mshr_miss_rate::.cpu.inst     0.395995                       # mshr miss rate for demand accesses
system.l2.demand_mshr_miss_rate::.cpu.data     0.999994                       # mshr miss rate for demand accesses
system.l2.demand_mshr_miss_rate::total       0.994015                       # mshr miss rate for demand accesses
system.l2.overall_mshr_miss_rate::.cpu.inst     0.395995                       # mshr miss rate for overall accesses
system.l2.overall_mshr_miss_rate::.cpu.data     0.999994                       # mshr miss rate for overall accesses
system.l2.overall_mshr_miss_rate::total      0.994015                       # mshr miss rate for overall accesses
system.l2.demand_avg_mshr_miss_latency::.cpu.inst 68884.991843                       # average overall mshr miss latency
system.l2.demand_avg_mshr_miss_latency::.cpu.data 76080.469754                       # average overall mshr miss latency
system.l2.demand_avg_mshr_miss_latency::total 76052.097002                       # average overall mshr miss latency
system.l2.overall_avg_mshr_miss_latency::.cpu.inst 68884.991843                       # average overall mshr miss latency
system.l2.overall_avg_mshr_miss_latency::.cpu.data 76080.469754                       # average overall mshr miss latency
system.l2.overall_avg_mshr_miss_latency::total 76052.097002                       # average overall mshr miss latency
system.l2.replacements                         152592                       # number of replacements
system.l2.WritebackDirty_hits::.writebacks       154530                       # number of WritebackDirty hits
system.l2.WritebackDirty_hits::total           154530                       # number of WritebackDirty hits
system.l2.WritebackDirty_accesses::.writebacks       154530                       # number of WritebackDirty accesses(hits+misses)
system.l2.WritebackDirty_accesses::total       154530                       # number of WritebackDirty accesses(hits+misses)
system.l2.WritebackClean_hits::.writebacks         1419                       # number of WritebackClean hits
system.l2.WritebackClean_hits::total             1419                       # number of WritebackClean hits
system.l2.WritebackClean_accesses::.writebacks         1419                       # number of WritebackClean accesses(hits+misses)
system.l2.WritebackClean_accesses::total         1419                       # number of WritebackClean accesses(hits+misses)
system.l2.ReadExReq_hits::.cpu.data                 1                       # number of ReadExReq hits
system.l2.ReadExReq_hits::total                     1                       # number of ReadExReq hits
system.l2.ReadExReq_misses::.cpu.data          154708                       # number of ReadExReq misses
system.l2.ReadExReq_misses::total              154708                       # number of ReadExReq misses
system.l2.ReadExReq_miss_latency::.cpu.data  13317294000                       # number of ReadExReq miss cycles
system.l2.ReadExReq_miss_latency::total   13317294000                       # number of ReadExReq miss cycles
system.l2.ReadExReq_accesses::.cpu.data        154709                       # number of ReadExReq accesses(hits+misses)
system.l2.ReadExReq_accesses::total            154709                       # number of ReadExReq accesses(hits+misses)
system.l2.ReadExReq_miss_rate::.cpu.data     0.999994                       # miss rate for ReadExReq accesses
system.l2.ReadExReq_miss_rate::total         0.999994                       # miss rate for ReadExReq accesses
system.l2.ReadExReq_avg_miss_latency::.cpu.data 86080.189777                       # average ReadExReq miss latency
system.l2.ReadExReq_avg_miss_latency::total 86080.189777                       # average ReadExReq miss latency
system.l2.ReadExReq_mshr_misses::.cpu.data       154708                       # number of ReadExReq MSHR misses
system.l2.ReadExReq_mshr_misses::total         154708                       # number of ReadExReq MSHR misses
system.l2.ReadExReq_mshr_miss_latency::.cpu.data  11770234000                       # number of ReadExReq MSHR miss cycles
system.l2.ReadExReq_mshr_miss_latency::total  11770234000                       # number of ReadExReq MSHR miss cycles
system.l2.ReadExReq_mshr_miss_rate::.cpu.data     0.999994                       # mshr miss rate for ReadExReq accesses
system.l2.ReadExReq_mshr_miss_rate::total     0.999994                       # mshr miss rate for ReadExReq accesses
system.l2.ReadExReq_avg_mshr_miss_latency::.cpu.data 76080.319053                       # average ReadExReq mshr miss latency
system.l2.ReadExReq_avg_mshr_miss_latency::total 76080.319053                       # average ReadExReq mshr miss latency
system.l2.ReadCleanReq_hits::.cpu.inst            935                       # number of ReadCleanReq hits
system.l2.ReadCleanReq_hits::total                935                       # number of ReadCleanReq hits
system.l2.ReadCleanReq_misses::.cpu.inst          613                       # number of ReadCleanReq misses
system.l2.ReadCleanReq_misses::total              613                       # number of ReadCleanReq misses
system.l2.ReadCleanReq_miss_latency::.cpu.inst     48356500                       # number of ReadCleanReq miss cycles
system.l2.ReadCleanReq_miss_latency::total     48356500                       # number of ReadCleanReq miss cycles
system.l2.ReadCleanReq_accesses::.cpu.inst         1548                       # number of ReadCleanReq accesses(hits+misses)
system.l2.ReadCleanReq_accesses::total           1548                       # number of ReadCleanReq accesses(hits+misses)
system.l2.ReadCleanReq_miss_rate::.cpu.inst     0.395995                       # miss rate for ReadCleanReq accesses
system.l2.ReadCleanReq_miss_rate::total      0.395995                       # miss rate for ReadCleanReq accesses
system.l2.ReadCleanReq_avg_miss_latency::.cpu.inst 78884.991843                       # average ReadCleanReq miss latency
system.l2.ReadCleanReq_avg_miss_latency::total 78884.991843                       # average ReadCleanReq miss latency
system.l2.ReadCleanReq_mshr_misses::.cpu.inst          613                       # number of ReadCleanReq MSHR misses
system.l2.ReadCleanReq_mshr_misses::total          613                       # number of ReadCleanReq MSHR misses
system.l2.ReadCleanReq_mshr_miss_latency::.cpu.inst     42226500                       # number of ReadCleanReq MSHR miss cycles
system.l2.ReadCleanReq_mshr_miss_latency::total     42226500                       # number of ReadCleanReq MSHR miss cycles
system.l2.ReadCleanReq_mshr_miss_rate::.cpu.inst     0.395995                       # mshr miss rate for ReadCleanReq accesses
system.l2.ReadCleanReq_mshr_miss_rate::total     0.395995                       # mshr miss rate for ReadCleanReq accesses
[...]
system.cpu.dcache.overall_misses::total       1314759                       # number of overall misses
system.cpu.dcache.demand_miss_latency::.cpu.data 102871661967                       # number of demand (read+write) miss cycles
system.cpu.dcache.demand_miss_latency::total 102871661967                       # number of demand (read+write) miss cycles
system.cpu.dcache.overall_miss_latency::.cpu.data 102871661967                       # number of overall miss cycles
system.cpu.dcache.overall_miss_latency::total 102871661967                       # number of overall miss cycles
system.cpu.dcache.demand_accesses::.cpu.data      4070494                       # number of demand (read+write) accesses
system.cpu.dcache.demand_accesses::total      4070494                       # number of demand (read+write) accesses
system.cpu.dcache.overall_accesses::.cpu.data      4070550                       # number of overall (read+write) accesses
system.cpu.dcache.overall_accesses::total      4070550                       # number of overall (read+write) accesses
system.cpu.dcache.demand_miss_rate::.cpu.data     0.322996                       # miss rate for demand accesses
system.cpu.dcache.demand_miss_rate::total     0.322996                       # miss rate for demand accesses
system.cpu.dcache.overall_miss_rate::.cpu.data     0.322993                       # miss rate for overall accesses
system.cpu.dcache.overall_miss_rate::total     0.322993                       # miss rate for overall accesses
system.cpu.dcache.demand_avg_miss_latency::.cpu.data 78243.978511                       # average overall miss latency
system.cpu.dcache.demand_avg_miss_latency::total 78243.978511                       # average overall miss latency
system.cpu.dcache.overall_avg_miss_latency::.cpu.data 78243.740463                       # average overall miss latency
system.cpu.dcache.overall_avg_miss_latency::total 78243.740463                       # average overall miss latency
system.cpu.dcache.blocked_cycles::no_mshrs       582718                       # number of cycles access was blocked
system.cpu.dcache.blocked_cycles::no_targets            0                       # number of cycles access was blocked
system.cpu.dcache.blocked::no_mshrs             37560                       # number of cycles access was blocked
system.cpu.dcache.blocked::no_targets               0                       # number of cycles access was blocked
system.cpu.dcache.avg_blocked_cycles::no_mshrs    15.514324                       # average number of cycles each access was blocked
system.cpu.dcache.avg_blocked_cycles::no_targets          nan                       # average number of cycles each access was blocked
system.cpu.dcache.writebacks::.writebacks       154530                       # number of writebacks
system.cpu.dcache.writebacks::total            154530                       # number of writebacks
system.cpu.dcache.demand_mshr_hits::.cpu.data      1159904                       # number of demand (read+write) MSHR hits
system.cpu.dcache.demand_mshr_hits::total      1159904                       # number of demand (read+write) MSHR hits
system.cpu.dcache.overall_mshr_hits::.cpu.data      1159904                       # number of overall MSHR hits
system.cpu.dcache.overall_mshr_hits::total      1159904                       # number of overall MSHR hits
system.cpu.dcache.demand_mshr_misses::.cpu.data       154851                       # number of demand (read+write) MSHR misses
system.cpu.dcache.demand_mshr_misses::total       154851                       # number of demand (read+write) MSHR misses
system.cpu.dcache.overall_mshr_misses::.cpu.data       154854                       # number of overall MSHR misses
system.cpu.dcache.overall_mshr_misses::total       154854                       # number of overall MSHR misses
system.cpu.dcache.demand_mshr_miss_latency::.cpu.data  13561466496                       # number of demand (read+write) MSHR miss cycles
system.cpu.dcache.demand_mshr_miss_latency::total  13561466496                       # number of demand (read+write) MSHR miss cycles
system.cpu.dcache.overall_mshr_miss_latency::.cpu.data  13561700496                       # number of overall MSHR miss cycles
system.cpu.dcache.overall_mshr_miss_latency::total  13561700496                       # number of overall MSHR miss cycles
system.cpu.dcache.demand_mshr_miss_rate::.cpu.data     0.038042                       # mshr miss rate for demand accesses
system.cpu.dcache.demand_mshr_miss_rate::total     0.038042                       # mshr miss rate for demand accesses
system.cpu.dcache.overall_mshr_miss_rate::.cpu.data     0.038043                       # mshr miss rate for overall accesses
system.cpu.dcache.overall_mshr_miss_rate::total     0.038043                       # mshr miss rate for overall accesses
system.cpu.dcache.demand_avg_mshr_miss_latency::.cpu.data 87577.519654                       # average overall mshr miss latency
system.cpu.dcache.demand_avg_mshr_miss_latency::total 87577.519654                       # average overall mshr miss latency
system.cpu.dcache.overall_avg_mshr_miss_latency::.cpu.data 87577.334108                       # average overall mshr miss latency
system.cpu.dcache.overall_avg_mshr_miss_latency::total 87577.334108                       # average overall mshr miss latency
system.cpu.dcache.replacements                 154538                       # number of replacements
system.cpu.dcache.ReadReq_hits::.cpu.data      2750411                       # number of ReadReq hits
system.cpu.dcache.ReadReq_hits::total         2750411                       # number of ReadReq hits
system.cpu.dcache.ReadReq_misses::.cpu.data          298                       # number of ReadReq misses
system.cpu.dcache.ReadReq_misses::total           298                       # number of ReadReq misses
system.cpu.dcache.ReadReq_miss_latency::.cpu.data     25111500                       # number of ReadReq miss cycles
system.cpu.dcache.ReadReq_miss_latency::total     25111500                       # number of ReadReq miss cycles
system.cpu.dcache.ReadReq_accesses::.cpu.data      2750709                       # number of ReadReq accesses(hits+misses)
system.cpu.dcache.ReadReq_accesses::total      2750709                       # number of ReadReq accesses(hits+misses)
system.cpu.dcache.ReadReq_miss_rate::.cpu.data     0.000108                       # miss rate for ReadReq accesses
system.cpu.dcache.ReadReq_miss_rate::total     0.000108                       # miss rate for ReadReq accesses
system.cpu.dcache.ReadReq_avg_miss_latency::.cpu.data 84266.778523                       # average ReadReq miss latency
system.cpu.dcache.ReadReq_avg_miss_latency::total 84266.778523                       # average ReadReq miss latency
system.cpu.dcache.ReadReq_mshr_hits::.cpu.data          163                       # number of ReadReq MSHR hits
system.cpu.dcache.ReadReq_mshr_hits::total          163                       # number of ReadReq MSHR hits
system.cpu.dcache.ReadReq_mshr_misses::.cpu.data          135                       # number of ReadReq MSHR misses
system.cpu.dcache.ReadReq_mshr_misses::total          135                       # number of ReadReq MSHR misses
system.cpu.dcache.ReadReq_mshr_miss_latency::.cpu.data     11880500                       # number of ReadReq MSHR miss cycles
system.cpu.dcache.ReadReq_mshr_miss_latency::total     11880500                       # number of ReadReq MSHR miss cycles
system.cpu.dcache.ReadReq_mshr_miss_rate::.cpu.data     0.000049                       # mshr miss rate for ReadReq accesses
system.cpu.dcache.ReadReq_mshr_miss_rate::total     0.000049                       # mshr miss rate for ReadReq accesses
system.cpu.dcache.ReadReq_avg_mshr_miss_latency::.cpu.data 88003.703704                       # average ReadReq mshr miss latency
system.cpu.dcache.ReadReq_avg_mshr_miss_latency::total 88003.703704                       # average ReadReq mshr miss latency
system.cpu.dcache.WriteReq_hits::.cpu.data         5328                       # number of WriteReq hits
system.cpu.dcache.WriteReq_hits::total           5328                       # number of WriteReq hits
system.cpu.dcache.WriteReq_misses::.cpu.data      1314450                       # number of WriteReq misses
system.cpu.dcache.WriteReq_misses::total      1314450                       # number of WriteReq misses
system.cpu.dcache.WriteReq_miss_latency::.cpu.data 102846327969                       # number of WriteReq miss cycles
system.cpu.dcache.WriteReq_miss_latency::total 102846327969                       # number of WriteReq miss cycles
system.cpu.dcache.WriteReq_accesses::.cpu.data      1319778                       # number of WriteReq accesses(hits+misses)
system.cpu.dcache.WriteReq_accesses::total      1319778                       # number of WriteReq accesses(hits+misses)
system.cpu.dcache.WriteReq_miss_rate::.cpu.data     0.995963                       # miss rate for WriteReq accesses
system.cpu.dcache.WriteReq_miss_rate::total     0.995963                       # miss rate for WriteReq accesses
system.cpu.dcache.WriteReq_avg_miss_latency::.cpu.data 78242.860488                       # average WriteReq miss latency
system.cpu.dcache.WriteReq_avg_miss_latency::total 78242.860488                       # average WriteReq miss latency
system.cpu.dcache.WriteReq_mshr_hits::.cpu.data      1159741                       # number of WriteReq MSHR hits
system.cpu.dcache.WriteReq_mshr_hits::total      1159741                       # number of WriteReq MSHR hits
system.cpu.dcache.WriteReq_mshr_misses::.cpu.data       154709                       # number of WriteReq MSHR misses
system.cpu.dcache.WriteReq_mshr_misses::total       154709                       # number of WriteReq MSHR misses
system.cpu.dcache.WriteReq_mshr_miss_latency::.cpu.data  13549370498                       # number of WriteReq MSHR miss cycles
system.cpu.dcache.WriteReq_mshr_miss_latency::total  13549370498                       # number of WriteReq MSHR miss cycles
system.cpu.dcache.WriteReq_mshr_miss_rate::.cpu.data     0.117224                       # mshr miss rate for WriteReq accesses
system.cpu.dcache.WriteReq_mshr_miss_rate::total     0.117224                       # mshr miss rate for WriteReq accesses
system.cpu.dcache.WriteReq_avg_mshr_miss_latency::.cpu.data 87579.717392                       # average WriteReq mshr miss latency
system.cpu.dcache.WriteReq_avg_mshr_miss_latency::total 87579.717392                       # average WriteReq mshr miss latency
system.cpu.dcache.SoftPFReq_hits::.cpu.data           52                       # number of SoftPFReq hits
system.cpu.dcache.SoftPFReq_hits::total            52                       # number of SoftPFReq hits
system.cpu.dcache.SoftPFReq_misses::.cpu.data            4                       # number of SoftPFReq misses
system.cpu.dcache.SoftPFReq_misses::total            4                       # number of SoftPFReq misses
system.cpu.dcache.SoftPFReq_accesses::.cpu.data           56                       # number of SoftPFReq accesses(hits+misses)
system.cpu.dcache.SoftPFReq_accesses::total           56                       # number of SoftPFReq accesses(hits+misses)
system.cpu.dcache.SoftPFReq_miss_rate::.cpu.data     0.071429                       # miss rate for SoftPFReq accesses
system.cpu.dcache.SoftPFReq_miss_rate::total     0.071429                       # miss rate for SoftPFReq accesses
system.cpu.dcache.SoftPFReq_mshr_misses::.cpu.data            3                       # number of SoftPFReq MSHR misses
system.cpu.dcache.SoftPFReq_mshr_misses::total            3                       # number of SoftPFReq MSHR misses
system.cpu.dcache.SoftPFReq_mshr_miss_latency::.cpu.data       234000                       # number of SoftPFReq MSHR miss cycles
system.cpu.dcache.SoftPFReq_mshr_miss_latency::total       234000                       # number of SoftPFReq MSHR miss cycles
system.cpu.dcache.SoftPFReq_mshr_miss_rate::.cpu.data     0.053571                       # mshr miss rate for SoftPFReq accesses
system.cpu.dcache.SoftPFReq_mshr_miss_rate::total     0.053571                       # mshr miss rate for SoftPFReq accesses
system.cpu.dcache.SoftPFReq_avg_mshr_miss_latency::.cpu.data        78000                       # average SoftPFReq mshr miss latency
system.cpu.dcache.SoftPFReq_avg_mshr_miss_latency::total        78000                       # average SoftPFReq mshr miss latency
system.cpu.dcache.WriteLineReq_misses::.cpu.data            7                       # number of WriteLineReq misses
system.cpu.dcache.WriteLineReq_misses::total            7                       # number of WriteLineReq misses
system.cpu.dcache.WriteLineReq_miss_latency::.cpu.data       222498                       # number of WriteLineReq miss cycles
system.cpu.dcache.WriteLineReq_miss_latency::total       222498                       # number of WriteLineReq miss cycles
system.cpu.dcache.WriteLineReq_accesses::.cpu.data            7                       # number of WriteLineReq accesses(hits+misses)
system.cpu.dcache.WriteLineReq_accesses::total            7                       # number of WriteLineReq accesses(hits+misses)
system.cpu.dcache.WriteLineReq_miss_rate::.cpu.data            1                       # miss rate for WriteLineReq accesses
system.cpu.dcache.WriteLineReq_miss_rate::total            1                       # miss rate for WriteLineReq accesses
system.cpu.dcache.WriteLineReq_avg_miss_latency::.cpu.data 31785.428571                       # average WriteLineReq miss latency
system.cpu.dcache.WriteLineReq_avg_miss_latency::total 31785.428571                       # average WriteLineReq miss latency
system.cpu.dcache.WriteLineReq_mshr_misses::.cpu.data            7                       # number of WriteLineReq MSHR misses
system.cpu.dcache.WriteLineReq_mshr_misses::total            7                       # number of WriteLineReq MSHR misses
system.cpu.dcache.WriteLineReq_mshr_miss_latency::.cpu.data       215498                       # number of WriteLineReq MSHR miss cycles
system.cpu.dcache.WriteLineReq_mshr_miss_latency::total       215498                       # number of WriteLineReq MSHR miss cycles
system.cpu.dcache.WriteLineReq_mshr_miss_rate::.cpu.data            1                       # mshr miss rate for WriteLineReq accesses
system.cpu.dcache.WriteLineReq_mshr_miss_rate::total            1                       # mshr miss rate for WriteLineReq accesses
system.cpu.dcache.WriteLineReq_avg_mshr_miss_latency::.cpu.data 30785.428571                       # average WriteLineReq mshr miss latency
system.cpu.dcache.WriteLineReq_avg_mshr_miss_latency::total 30785.428571                       # average WriteLineReq mshr miss latency
system.cpu.dcache.LoadLockedReq_hits::.cpu.data          167                       # number of LoadLockedReq hits
system.cpu.dcache.LoadLockedReq_hits::total          167                       # number of LoadLockedReq hits
system.cpu.dcache.LoadLockedReq_misses::.cpu.data            1                       # number of LoadLockedReq misses
system.cpu.dcache.LoadLockedReq_misses::total            1                       # number of LoadLockedReq misses
system.cpu.dcache.LoadLockedReq_miss_latency::.cpu.data        87500                       # number of LoadLockedReq miss cycles
system.cpu.dcache.LoadLockedReq_miss_latency::total        87500                       # number of LoadLockedReq miss cycles
system.cpu.dcache.LoadLockedReq_accesses::.cpu.data          168                       # number of LoadLockedReq accesses(hits+misses)
system.cpu.dcache.LoadLockedReq_accesses::total          168                       # number of LoadLockedReq accesses(hits+misses)
system.cpu.dcache.LoadLockedReq_miss_rate::.cpu.data     0.005952                       # miss rate for LoadLockedReq accesses
system.cpu.dcache.LoadLockedReq_miss_rate::total     0.005952                       # miss rate for LoadLockedReq accesses
system.cpu.dcache.LoadLockedReq_avg_miss_latency::.cpu.data        87500                       # average LoadLockedReq miss latency
system.cpu.dcache.LoadLockedReq_avg_miss_latency::total        87500                       # average LoadLockedReq miss latency
system.cpu.dcache.LoadLockedReq_mshr_misses::.cpu.data            1                       # number of LoadLockedReq MSHR misses
system.cpu.dcache.LoadLockedReq_mshr_misses::total            1                       # number of LoadLockedReq MSHR misses
system.cpu.dcache.LoadLockedReq_mshr_miss_latency::.cpu.data        86500                       # number of LoadLockedReq MSHR miss cycles
system.cpu.dcache.LoadLockedReq_mshr_miss_latency::total        86500                       # number of LoadLockedReq MSHR miss cycles
system.cpu.dcache.LoadLockedReq_mshr_miss_rate::.cpu.data     0.005952                       # mshr miss rate for LoadLockedReq accesses
system.cpu.dcache.LoadLockedReq_mshr_miss_rate::total     0.005952                       # mshr miss rate for LoadLockedReq accesses
system.cpu.dcache.LoadLockedReq_avg_mshr_miss_latency::.cpu.data        86500                       # average LoadLockedReq mshr miss latency
system.cpu.dcache.LoadLockedReq_avg_mshr_miss_latency::total        86500                       # average LoadLockedReq mshr miss latency
system.cpu.dcache.StoreCondReq_hits::.cpu.data          142                       # number of StoreCondReq hits
system.cpu.dcache.StoreCondReq_hits::total          142                       # number of StoreCondReq hits
system.cpu.dcache.StoreCondReq_accesses::.cpu.data          142                       # number of StoreCondReq accesses(hits+misses)
system.cpu.dcache.StoreCondReq_accesses::total          142                       # number of StoreCondReq accesses(hits+misses)
system.cpu.dcache.power_state.pwrStateResidencyTicks::UNDEFINED   7579093500                       # Cumulative time (in ticks) in various power states
system.cpu.dcache.tags.tagsinuse           314.083740                       # Cycle average of tags in use
system.cpu.dcache.tags.total_refs             2910953                       # Total number of references to valid blocks.
system.cpu.dcache.tags.sampled_refs            154853                       # Sample count of references to valid blocks.
system.cpu.dcache.tags.avg_refs             18.798170                       # Average number of references to valid blocks.
system.cpu.dcache.tags.warmup_cycle            249500                       # Cycle when the warmup percentage was hit.
system.cpu.dcache.tags.occ_blocks::.cpu.data   314.083740                       # Average occupied blocks per requestor
system.cpu.dcache.tags.occ_percent::.cpu.data     0.306722                       # Average percentage of cache occupancy
system.cpu.dcache.tags.occ_percent::total     0.306722                       # Average percentage of cache occupancy
system.cpu.dcache.tags.occ_task_id_blocks::1024          315                       # Occupied blocks per task id
system.cpu.dcache.tags.age_task_id_blocks_1024::0           64                       # Occupied blocks per task id
system.cpu.dcache.tags.age_task_id_blocks_1024::3          251                       # Occupied blocks per task id
system.cpu.dcache.tags.occ_task_id_percent::1024     0.307617                       # Percentage of cache occupancy per task id
system.cpu.dcache.tags.tag_accesses           8296573                       # Number of tag accesses
system.cpu.dcache.tags.data_accesses          8296573                       # Number of data accesses
system.cpu.dcache.tags.power_state.pwrStateResidencyTicks::UNDEFINED   7579093500                       # Cumulative time (in ticks) in various power states
system.cpu.power_state.pwrStateResidencyTicks::ON   7579093500                       # Cumulative time (in ticks) in various power states

---------- End Simulation Statistics   ----------
