
---------- Begin Simulation Statistics ----------
final_tick                                  367698000                       # Number of ticks from beginning of simulation (restored from checkpoints and never reset)
host_inst_rate                                 131115                       # Simulator instruction rate (inst/s)
host_mem_usage                                 862292                       # Number of bytes of host memory used
host_op_rate                                   148735                       # Simulator op (including micro ops) rate (op/s)
host_seconds                                     7.63                       # Real time elapsed on the host
host_tick_rate                               48209383                       # Simulator tick rate (ticks/s)
sim_freq                                 1000000000000                       # Frequency of simulated ticks
sim_insts                                     1000003                       # Number of instructions simulated
sim_ops                                       1134415                       # Number of ops (including micro ops) simulated
sim_seconds                                  0.000368                       # Number of seconds simulated
sim_ticks                                   367698000                       # Number of ticks simulated
system.cpu.branchPred.BTBCorrect                    0                       # Number of correct BTB predictions (this stat may not work properly.
system.cpu.branchPred.BTBHitPct             98.952062                       # BTB Hit Percentage
system.cpu.branchPred.BTBHits                   91876                       # Number of BTB hits
system.cpu.branchPred.BTBLookups                92849                       # Number of BTB lookups
system.cpu.branchPred.RASInCorrect                  1                       # Number of incorrect RAS predictions.
system.cpu.branchPred.condIncorrect               799                       # Number of conditional branches incorrect
system.cpu.branchPred.condPredicted            181632                       # Number of conditional branches predicted
system.cpu.branchPred.indirectHits               3021                       # Number of indirect target hits.
system.cpu.branchPred.indirectLookups            3235                       # Number of indirect predictor lookups.
system.cpu.branchPred.indirectMisses              214                       # Number of indirect misses.
system.cpu.branchPred.lookups                  226574                       # Number of BP lookups
system.cpu.branchPred.usedRAS                   11258                       # Number of times the RAS was used to get a target.
system.cpu.branchPredindirectMispredicted           58                       # Number of mispredicted indirect branches.
system.cpu.cc_regfile_reads                    468609                       # number of cc regfile reads
system.cpu.cc_regfile_writes                   444429                       # number of cc regfile writes
system.cpu.commit.amos                              0                       # Number of atomic instructions committed
system.cpu.commit.branchMispredicts               551                       # The number of times a branch was mispredicted
system.cpu.commit.branches                     222076                       # Number of branches committed
system.cpu.commit.bw_lim_events                 66556                       # number cycles where commit BW limit reached
system.cpu.commit.commitNonSpecStalls            1246                       # The number of times commit has been forced to stall to communicate backwards
system.cpu.commit.commitSquashedInsts           13109                       # The number of squashed insts skipped by commit
system.cpu.commit.committedInsts              1000625                       # Number of instructions committed
system.cpu.commit.committedOps                1135037                       # Number of ops (including micro ops) committed
system.cpu.commit.committed_per_cycle::samples       689301                       # Number of insts commited each cycle
system.cpu.commit.committed_per_cycle::mean     1.646649                       # Number of insts commited each cycle
system.cpu.commit.committed_per_cycle::stdev     2.608737                       # Number of insts commited each cycle
system.cpu.commit.committed_per_cycle::underflows            0      0.00%      0.00% # Number of insts commited each cycle
system.cpu.commit.committed_per_cycle::0       380685     55.23%     55.23% # Number of insts commited each cycle
system.cpu.commit.committed_per_cycle::1       102289     14.84%     70.07% # Number of insts commited each cycle
system.cpu.commit.committed_per_cycle::2        54630      7.93%     77.99% # Number of insts commited each cycle
system.cpu.commit.committed_per_cycle::3        27004      3.92%     81.91% # Number of insts commited each cycle
system.cpu.commit.committed_per_cycle::4        21977      3.19%     85.10% # Number of insts commited each cycle
system.cpu.commit.committed_per_cycle::5         8072      1.17%     86.27% # Number of insts commited each cycle
system.cpu.commit.committed_per_cycle::6        14856      2.16%     88.42% # Number of insts commited each cycle
system.cpu.commit.committed_per_cycle::7        13232      1.92%     90.34% # Number of insts commited each cycle
system.cpu.commit.committed_per_cycle::8        66556      9.66%    100.00% # Number of insts commited each cycle
system.cpu.commit.committed_per_cycle::overflows            0      0.00%    100.00% # Number of insts commited each cycle
system.cpu.commit.committed_per_cycle::min_value            0                       # Number of insts commited each cycle
system.cpu.commit.committed_per_cycle::max_value            8                       # Number of insts commited each cycle
system.cpu.commit.committed_per_cycle::total       689301                       # Number of insts commited each cycle
system.cpu.commit.fp_insts                          0                       # Number of committed floating point instructions.
system.cpu.commit.function_calls                10973                       # Number of function calls committed.
system.cpu.commit.int_insts                    986963                       # Number of committed integer instructions.
system.cpu.commit.loads                        170933                       # Number of loads committed
system.cpu.commit.membars                        1232                       # Number of memory barriers committed
system.cpu.commit.op_class_0::No_OpClass          831      0.07%      0.07% # Class of committed instruction
system.cpu.commit.op_class_0::IntAlu           769647     67.81%     67.88% # Class of committed instruction
system.cpu.commit.op_class_0::IntMult            6011      0.53%     68.41% # Class of committed instruction
system.cpu.commit.op_class_0::IntDiv                3      0.00%     68.41% # Class of committed instruction
system.cpu.commit.op_class_0::FloatAdd              0      0.00%     68.41% # Class of committed instruction
system.cpu.commit.op_class_0::FloatCmp              0      0.00%     68.41% # Class of committed instruction
system.cpu.commit.op_class_0::FloatCvt              0      0.00%     68.41% # Class of committed instruction
system.cpu.commit.op_class_0::FloatMult             0      0.00%     68.41% # Class of committed instruction
system.cpu.commit.op_class_0::FloatMultAcc            0      0.00%     68.41% # Class of committed instruction
system.cpu.commit.op_class_0::FloatDiv              0      0.00%     68.41% # Class of committed instruction
system.cpu.commit.op_class_0::FloatMisc             0      0.00%     68.41% # Class of committed instruction
system.cpu.commit.op_class_0::FloatSqrt             0      0.00%     68.41% # Class of committed instruction
system.cpu.commit.op_class_0::SimdAdd            1899      0.17%     68.58% # Class of committed instruction
system.cpu.commit.op_class_0::SimdAddAcc            0      0.00%     68.58% # Class of committed instruction
system.cpu.commit.op_class_0::SimdAlu            1895      0.17%     68.75% # Class of committed instruction
system.cpu.commit.op_class_0::SimdCmp            1672      0.15%     68.89% # Class of committed instruction
system.cpu.commit.op_class_0::SimdCvt               0      0.00%     68.89% # Class of committed instruction
system.cpu.commit.op_class_0::SimdMisc           2269      0.20%     69.09% # Class of committed instruction
system.cpu.commit.op_class_0::SimdMult              0      0.00%     69.09% # Class of committed instruction
system.cpu.commit.op_class_0::SimdMultAcc            0      0.00%     69.09% # Class of committed instruction
system.cpu.commit.op_class_0::SimdShift             0      0.00%     69.09% # Class of committed instruction
system.cpu.commit.op_class_0::SimdShiftAcc            0      0.00%     69.09% # Class of committed instruction
system.cpu.commit.op_class_0::SimdDiv               0      0.00%     69.09% # Class of committed instruction
system.cpu.commit.op_class_0::SimdSqrt              0      0.00%     69.09% # Class of committed instruction
system.cpu.commit.op_class_0::SimdFloatAdd            0      0.00%     69.09% # Class of committed instruction
system.cpu.commit.op_class_0::SimdFloatAlu            0      0.00%     69.09% # Class of committed instruction
system.cpu.commit.op_class_0::SimdFloatCmp            0      0.00%     69.09% # Class of committed instruction
system.cpu.commit.op_class_0::SimdFloatCvt            0      0.00%     69.09% # Class of committed instruction
system.cpu.commit.op_class_0::SimdFloatDiv            0      0.00%     69.09% # Class of committed instruction
system.cpu.commit.op_class_0::SimdFloatMisc            0      0.00%     69.09% # Class of committed instruction
system.cpu.commit.op_class_0::SimdFloatMult            0      0.00%     69.09% # Class of committed instruction
system.cpu.commit.op_class_0::SimdFloatMultAcc            0      0.00%     69.09% # Class of committed instruction
system.cpu.commit.op_class_0::SimdFloatSqrt            0      0.00%     69.09% # Class of committed instruction
system.cpu.commit.op_class_0::SimdReduceAdd            0      0.00%     69.09% # Class of committed instruction
system.cpu.commit.op_class_0::SimdReduceAlu            0      0.00%     69.09% # Class of committed instruction
system.cpu.commit.op_class_0::SimdReduceCmp            0      0.00%     69.09% # Class of committed instruction
system.cpu.commit.op_class_0::SimdFloatReduceAdd            0      0.00%     69.09% # Class of committed instruction
system.cpu.commit.op_class_0::SimdFloatReduceCmp            0      0.00%     69.09% # Class of committed instruction
system.cpu.commit.op_class_0::SimdAes               0      0.00%     69.09% # Class of committed instruction
system.cpu.commit.op_class_0::SimdAesMix            0      0.00%     69.09% # Class of committed instruction
system.cpu.commit.op_class_0::SimdSha1Hash            0      0.00%     69.09% # Class of committed instruction
system.cpu.commit.op_class_0::SimdSha1Hash2            0      0.00%     69.09% # Class of committed instruction
system.cpu.commit.op_class_0::SimdSha256Hash            0      0.00%     69.09% # Class of committed instruction
system.cpu.commit.op_class_0::SimdSha256Hash2            0      0.00%     69.09% # Class of committed instruction
system.cpu.commit.op_class_0::SimdShaSigma2            0      0.00%     69.09% # Class of committed instruction
system.cpu.commit.op_class_0::SimdShaSigma3            0      0.00%     69.09% # Class of committed instruction
system.cpu.commit.op_class_0::SimdPredAlu            0      0.00%     69.09% # Class of committed instruction
system.cpu.commit.op_class_0::MemRead          170933     15.06%     84.15% # Class of committed instruction
system.cpu.commit.op_class_0::MemWrite         179877     15.85%    100.00% # Class of committed instruction
system.cpu.commit.op_class_0::FloatMemRead            0      0.00%    100.00% # Class of committed instruction
system.cpu.commit.op_class_0::FloatMemWrite            0      0.00%    100.00% # Class of committed instruction
system.cpu.commit.op_class_0::IprAccess             0      0.00%    100.00% # Class of committed instruction
system.cpu.commit.op_class_0::InstPrefetch            0      0.00%    100.00% # Class of committed instruction
system.cpu.commit.op_class_0::total           1135037                       # Class of committed instruction
system.cpu.commit.refs                         350810                       # Number of memory references committed
system.cpu.commit.swp_count                         0                       # Number of s/w prefetches committed
system.cpu.commit.vec_insts                     19916                       # Number of committed Vector instructions.
system.cpu.committedInsts                     1000003                       # Number of Instructions Simulated
system.cpu.committedOps                       1134415                       # Number of Ops (including micro ops) Simulated
system.cpu.cpi                               0.735395                       # CPI: Cycles Per Instruction
system.cpu.cpi_total                         0.735395                       # CPI: Total CPI of All Threads
system.cpu.decode.BlockedCycles                333215                       # Number of cycles decode is blocked
system.cpu.decode.BranchMispred                   251                       # Number of times decode detected a branch misprediction
system.cpu.decode.BranchResolved                91883                       # Number of times decode resolved a branch
system.cpu.decode.DecodedInsts                1152889                       # Number of instructions handled by decode
system.cpu.decode.IdleCycles                   142044                       # Number of cycles decode is idle
system.cpu.decode.RunCycles                    208378                       # Number of cycles decode is running
system.cpu.decode.SquashCycles                    659                       # Number of cycles decode is squashing
system.cpu.decode.SquashedInsts                   975                       # Number of squashed instructions handled by decode
system.cpu.decode.UnblockCycles                  7011                       # Number of cycles decode is unblocking
system.cpu.dtb.accesses                             0                       # DTB accesses
system.cpu.dtb.align_faults                         0                       # Number of TLB faults due to alignment restrictions
system.cpu.dtb.domain_faults                        0                       # Number of TLB faults due to domain restrictions
system.cpu.dtb.flush_entries                        0                       # Number of entries that have been flushed from TLB
system.cpu.dtb.flush_tlb                            0                       # Number of times complete TLB was flushed
system.cpu.dtb.flush_tlb_asid                       0                       # Number of times TLB was flushed by ASID
system.cpu.dtb.flush_tlb_mva                        0                       # Number of times TLB was flushed by MVA
system.cpu.dtb.flush_tlb_mva_asid                   0                       # Number of times TLB was flushed by MVA & ASID
system.cpu.dtb.hits                                 0                       # DTB hits
system.cpu.dtb.inst_accesses                        0                       # ITB inst accesses
system.cpu.dtb.inst_hits                            0                       # ITB inst hits
system.cpu.dtb.inst_misses                          0                       # ITB inst misses
system.cpu.dtb.misses                               0                       # DTB misses
system.cpu.dtb.perms_faults                         0                       # Number of TLB faults due to permissions restrictions
system.cpu.dtb.prefetch_faults                      0                       # Number of TLB faults due to prefetch
system.cpu.dtb.read_accesses                        0                       # DTB read accesses
system.cpu.dtb.read_hits                            0                       # DTB read hits
system.cpu.dtb.read_misses                          0                       # DTB read misses
system.cpu.dtb.stage2_mmu.stage2_tlb.accesses            0                       # DTB accesses
system.cpu.dtb.stage2_mmu.stage2_tlb.align_faults            0                       # Number of TLB faults due to alignment restrictions
system.cpu.dtb.stage2_mmu.stage2_tlb.domain_faults            0                       # Number of TLB faults due to domain restrictions
system.cpu.dtb.stage2_mmu.stage2_tlb.flush_entries            0                       # Number of entries that have been flushed from TLB
system.cpu.dtb.stage2_mmu.stage2_tlb.flush_tlb            0                       # Number of times complete TLB was flushed
system.cpu.dtb.stage2_mmu.stage2_tlb.flush_tlb_asid            0                       # Number of times TLB was flushed by ASID
system.cpu.dtb.stage2_mmu.stage2_tlb.flush_tlb_mva            0                       # Number of times TLB was flushed by MVA
system.cpu.dtb.stage2_mmu.stage2_tlb.flush_tlb_mva_asid            0                       # Number of times TLB was flushed by MVA & ASID
system.cpu.dtb.stage2_mmu.stage2_tlb.hits            0                       # DTB hits
system.cpu.dtb.stage2_mmu.stage2_tlb.inst_accesses            0                       # ITB inst accesses
system.cpu.dtb.stage2_mmu.stage2_tlb.inst_hits            0                       # ITB inst hits
system.cpu.dtb.stage2_mmu.stage2_tlb.inst_misses            0                       # ITB inst misses
system.cpu.dtb.stage2_mmu.stage2_tlb.misses            0                       # DTB misses
system.cpu.dtb.stage2_mmu.stage2_tlb.perms_faults            0                       # Number of TLB faults due to permissions restrictions
system.cpu.dtb.stage2_mmu.stage2_tlb.prefetch_faults            0                       # Number of TLB faults due to prefetch
system.cpu.dtb.stage2_mmu.stage2_tlb.read_accesses            0                       # DTB read accesses
system.cpu.dtb.stage2_mmu.stage2_tlb.read_hits            0                       # DTB read hits
system.cpu.dtb.stage2_mmu.stage2_tlb.read_misses            0                       # DTB read misses
system.cpu.dtb.stage2_mmu.stage2_tlb.walker.walkRequestOrigin_Requested::Data            0                       # Table walker requests started/completed, data/inst
system.cpu.dtb.stage2_mmu.stage2_tlb.walker.walkRequestOrigin_Requested::Inst            0                       # Table walker requests started/completed, data/inst
system.cpu.dtb.stage2_mmu.stage2_tlb.walker.walkRequestOrigin_Requested::total            0                       # Table walker requests started/completed, data/inst
system.cpu.dtb.stage2_mmu.stage2_tlb.walker.walkRequestOrigin_Completed::Data            0                       # Table walker requests started/completed, data/inst
system.cpu.dtb.stage2_mmu.stage2_tlb.walker.walkRequestOrigin_Completed::Inst            0                       # Table walker requests started/completed, data/inst
system.cpu.dtb.stage2_mmu.stage2_tlb.walker.walkRequestOrigin_Completed::total            0                       # Table walker requests started/completed, data/inst
system.cpu.dtb.stage2_mmu.stage2_tlb.walker.walkRequestOrigin::total            0                       # Table walker requests started/completed, data/inst
system.cpu.dtb.stage2_mmu.stage2_tlb.walker.walks            0                       # Table walker walks requested
system.cpu.dtb.stage2_mmu.stage2_tlb.write_accesses            0                       # DTB write accesses
system.cpu.dtb.stage2_mmu.stage2_tlb.write_hits            0                       # DTB write hits
system.cpu.dtb.stage2_mmu.stage2_tlb.write_misses            0                       # DTB write misses
system.cpu.dtb.walker.walkRequestOrigin_Requested::Data            0                       # Table walker requests started/completed, data/inst
system.cpu.dtb.walker.walkRequestOrigin_Requested::Inst            0                       # Table walker requests started/completed, data/inst
system.cpu.dtb.walker.walkRequestOrigin_Requested::total            0                       # Table walker requests started/completed, data/inst
system.cpu.dtb.walker.walkRequestOrigin_Completed::Data            0                       # Table walker requests started/completed, data/inst
system.cpu.dtb.walker.walkRequestOrigin_Completed::Inst            0                       # Table walker requests started/completed, data/inst
system.cpu.dtb.walker.walkRequestOrigin_Completed::total            0                       # Table walker requests started/completed, data/inst
system.cpu.dtb.walker.walkRequestOrigin::total            0                       # Table walker requests started/completed, data/inst
system.cpu.dtb.walker.walks                         0                       # Table walker walks requested
system.cpu.dtb.write_accesses                       0                       # DTB write accesses
system.cpu.dtb.write_hits                           0                       # DTB write hits
system.cpu.dtb.write_misses                         0                       # DTB write misses
system.cpu.fetch.Branches                      226574                       # Number of branches that fetch encountered
system.cpu.fetch.CacheLines                    150544                       # Number of cache lines fetched
system.cpu.fetch.Cycles                        529266                       # Number of cycles fetch has run and was not squashing or blocked
system.cpu.fetch.IcacheSquashes                   519                       # Number of outstanding Icache misses that were squashed
system.cpu.fetch.IcacheWaitRetryStallCycles           40                       # Number of stall cycles due to full MSHR
system.cpu.fetch.Insts                        1023072                       # Number of instructions fetch has processed
system.cpu.fetch.MiscStallCycles                    3                       # Number of cycles fetch has spent waiting on interrupts, or bad addresses, or out of MSHRs
system.cpu.fetch.SquashCycles                    1814                       # Number of cycles fetch has spent squashing
system.cpu.fetch.branchRate                  0.308098                       # Number of branch fetches per cycle
system.cpu.fetch.icacheStallCycles             161091                       # Number of cycles fetch is stalled on an Icache miss
system.cpu.fetch.predictedBranches             106155                       # Number of branches that fetch has predicted taken
system.cpu.fetch.rate                        1.391183                       # Number of inst fetches per cycle
system.cpu.fetch.rateDist::samples             691307                       # Number of instructions fetched each cycle (Total)
system.cpu.fetch.rateDist::mean              1.678768                       # Number of instructions fetched each cycle (Total)
system.cpu.fetch.rateDist::stdev             2.800203                       # Number of instructions fetched each cycle (Total)
system.cpu.fetch.rateDist::underflows               0      0.00%      0.00% # Number of instructions fetched each cycle (Total)
system.cpu.fetch.rateDist::0                   461924     66.82%     66.82% # Number of instructions fetched each cycle (Total)
system.cpu.fetch.rateDist::1                    23838      3.45%     70.27% # Number of instructions fetched each cycle (Total)
system.cpu.fetch.rateDist::2                    21300      3.08%     73.35% # Number of instructions fetched each cycle (Total)
system.cpu.fetch.rateDist::3                    29195      4.22%     77.57% # Number of instructions fetched each cycle (Total)
system.cpu.fetch.rateDist::4                    37070      5.36%     82.93% # Number of instructions fetched each cycle (Total)
system.cpu.fetch.rateDist::5                    20731      3.00%     85.93% # Number of instructions fetched each cycle (Total)
system.cpu.fetch.rateDist::6                     6438      0.93%     86.86% # Number of instructions fetched each cycle (Total)
system.cpu.fetch.rateDist::7                    10530      1.52%     88.39% # Number of instructions fetched each cycle (Total)
system.cpu.fetch.rateDist::8                    80281     11.61%    100.00% # Number of instructions fetched each cycle (Total)
system.cpu.fetch.rateDist::overflows                0      0.00%    100.00% # Number of instructions fetched each cycle (Total)
system.cpu.fetch.rateDist::min_value                0                       # Number of instructions fetched each cycle (Total)
system.cpu.fetch.rateDist::max_value                8                       # Number of instructions fetched each cycle (Total)
system.cpu.fetch.rateDist::total               691307                       # Number of instructions fetched each cycle (Total)
system.cpu.icache.prefetcher.num_hwpf_issued          668                       # number of hwpf issued
system.cpu.icache.prefetcher.pfBufferHit            0                       # number of redundant prefetches already in prefetch queue
system.cpu.icache.prefetcher.pfIdentified          704                       # number of prefetch candidates identified
system.cpu.icache.prefetcher.pfInCache              0                       # number of redundant prefetches already in cache/mshr dropped
system.cpu.icache.prefetcher.pfRemovedFull            0                       # number of prefetches dropped due to prefetch queue size
system.cpu.icache.prefetcher.pfSpanPage            21                       # number of prefetches that crossed the page
system.cpu.idleCycles                           44090                       # Total number of cycles that the CPU has spent unscheduled due to idling
system.cpu.iew.branchMispredicts                  640                       # Number of branch mispredicts detected at execute
system.cpu.iew.exec_branches                   223302                       # Number of branches executed
system.cpu.iew.exec_nop                           653                       # number of nop insts executed
system.cpu.iew.exec_rate                     1.580839                       # Inst execution rate
system.cpu.iew.exec_refs                       372745                       # number of memory reference insts executed
system.cpu.iew.exec_stores                     181921                       # Number of stores executed
system.cpu.iew.exec_swp                             0                       # number of swp insts executed
system.cpu.iew.iewBlockCycles                    1628                       # Number of cycles IEW is blocking
system.cpu.iew.iewDispLoadInsts                172958                       # Number of dispatched load instructions
system.cpu.iew.iewDispNonSpecInsts               1268                       # Number of dispatched non-speculative instructions
system.cpu.iew.iewDispSquashedInsts               220                       # Number of squashed instructions skipped by dispatch
system.cpu.iew.iewDispStoreInsts               182705                       # Number of dispatched store instructions
system.cpu.iew.iewDispatchedInsts             1148724                       # Number of instructions dispatched to IQ
system.cpu.iew.iewExecLoadInsts                190824                       # Number of load instructions executed
system.cpu.iew.iewExecSquashedInsts               791                       # Number of squashed instructions skipped in execute
system.cpu.iew.iewExecutedInsts               1162544                       # Number of executed instructions
system.cpu.iew.iewIQFullEvents                     12                       # Number of times the IQ has become full, causing a stall
system.cpu.iew.iewIdleCycles                        0                       # Number of cycles IEW is idle
system.cpu.iew.iewLSQFullEvents                  9279                       # Number of times the LSQ has become full, causing a stall
system.cpu.iew.iewSquashCycles                    659                       # Number of cycles IEW is squashing
system.cpu.iew.iewUnblockCycles                  9276                       # Number of cycles IEW is unblocking
system.cpu.iew.lsq.thread0.blockedLoads             0                       # Number of blocked loads due to partial load-store forwarding
system.cpu.iew.lsq.thread0.cacheBlocked          1358                       # Number of times an access to memory failed due to the cache being blocked
system.cpu.iew.lsq.thread0.forwLoads            10812                       # Number of loads that had data forwarded from stores
system.cpu.iew.lsq.thread0.ignoredResponses            2                       # Number of memory responses ignored because the instruction is squashed
system.cpu.iew.lsq.thread0.invAddrLoads             0                       # Number of loads ignored due to an invalid address
system.cpu.iew.lsq.thread0.invAddrSwpfs             0                       # Number of software prefetches ignored due to an invalid address
system.cpu.iew.lsq.thread0.memOrderViolation           32                       # Number of memory ordering violations
system.cpu.iew.lsq.thread0.rescheduledLoads        13238                       # Number of loads that were rescheduled
system.cpu.iew.lsq.thread0.squashedLoads         2024                       # Number of loads squashed
system.cpu.iew.lsq.thread0.squashedStores         2828                       # Number of stores squashed
system.cpu.iew.memOrderViolationEvents             32                       # Number of memory order violations
system.cpu.iew.predictedNotTakenIncorrect          568                       # Number of branches that were predicted not taken incorrectly
system.cpu.iew.predictedTakenIncorrect             72                       # Number of branches that were predicted taken incorrectly
system.cpu.iew.wb_consumers                   1105609                       # num instructions consuming a value
system.cpu.iew.wb_count                       1142982                       # cumulative count of insts written-back
system.cpu.iew.wb_fanout                     0.514908                       # average fanout of values written-back
system.cpu.iew.wb_producers                    569287                       # num instructions producing a value
system.cpu.iew.wb_rate                       1.554238                       # insts written-back per cycle
system.cpu.iew.wb_sent                        1143718                       # cumulative count of insts sent to commit
system.cpu.int_regfile_reads                  1321251                       # number of integer regfile reads
system.cpu.int_regfile_writes                  762201                       # number of integer regfile writes
system.cpu.ipc                               1.359814                       # IPC: Instructions Per Cycle
system.cpu.ipc_total                         1.359814                       # IPC: Total IPC of All Threads
system.cpu.iq.FU_type_0::No_OpClass               835      0.07%      0.07% # Type of FU issued
system.cpu.iq.FU_type_0::IntAlu                775563     66.67%     66.74% # Type of FU issued
system.cpu.iq.FU_type_0::IntMult                 6016      0.52%     67.26% # Type of FU issued
system.cpu.iq.FU_type_0::IntDiv                     3      0.00%     67.26% # Type of FU issued
system.cpu.iq.FU_type_0::FloatAdd                   0      0.00%     67.26% # Type of FU issued
system.cpu.iq.FU_type_0::FloatCmp                   0      0.00%     67.26% # Type of FU issued
system.cpu.iq.FU_type_0::FloatCvt                   0      0.00%     67.26% # Type of FU issued
system.cpu.iq.FU_type_0::FloatMult                  0      0.00%     67.26% # Type of FU issued
system.cpu.iq.FU_type_0::FloatMultAcc               0      0.00%     67.26% # Type of FU issued
system.cpu.iq.FU_type_0::FloatDiv                   0      0.00%     67.26% # Type of FU issued
system.cpu.iq.FU_type_0::FloatMisc                  0      0.00%     67.26% # Type of FU issued
system.cpu.iq.FU_type_0::FloatSqrt                  0      0.00%     67.26% # Type of FU issued
system.cpu.iq.FU_type_0::SimdAdd                 1912      0.16%     67.42% # Type of FU issued
system.cpu.iq.FU_type_0::SimdAddAcc                 0      0.00%     67.42% # Type of FU issued
system.cpu.iq.FU_type_0::SimdAlu                 1909      0.16%     67.58% # Type of FU issued
system.cpu.iq.FU_type_0::SimdCmp                 1680      0.14%     67.73% # Type of FU issued
system.cpu.iq.FU_type_0::SimdCvt                    0      0.00%     67.73% # Type of FU issued
system.cpu.iq.FU_type_0::SimdMisc                2278      0.20%     67.92% # Type of FU issued
system.cpu.iq.FU_type_0::SimdMult                   0      0.00%     67.92% # Type of FU issued
system.cpu.iq.FU_type_0::SimdMultAcc                0      0.00%     67.92% # Type of FU issued
system.cpu.iq.FU_type_0::SimdShift                  0      0.00%     67.92% # Type of FU issued
system.cpu.iq.FU_type_0::SimdShiftAcc               0      0.00%     67.92% # Type of FU issued
system.cpu.iq.FU_type_0::SimdDiv                    0      0.00%     67.92% # Type of FU issued
system.cpu.iq.FU_type_0::SimdSqrt                   0      0.00%     67.92% # Type of FU issued
system.cpu.iq.FU_type_0::SimdFloatAdd               0      0.00%     67.92% # Type of FU issued
system.cpu.iq.FU_type_0::SimdFloatAlu               0      0.00%     67.92% # Type of FU issued
system.cpu.iq.FU_type_0::SimdFloatCmp               0      0.00%     67.92% # Type of FU issued
system.cpu.iq.FU_type_0::SimdFloatCvt               0      0.00%     67.92% # Type of FU issued
system.cpu.iq.FU_type_0::SimdFloatDiv               0      0.00%     67.92% # Type of FU issued
system.cpu.iq.FU_type_0::SimdFloatMisc              0      0.00%     67.92% # Type of FU issued
system.cpu.iq.FU_type_0::SimdFloatMult              0      0.00%     67.92% # Type of FU issued
system.cpu.iq.FU_type_0::SimdFloatMultAcc            0      0.00%     67.92% # Type of FU issued
system.cpu.iq.FU_type_0::SimdFloatSqrt              0      0.00%     67.92% # Type of FU issued
system.cpu.iq.FU_type_0::SimdReduceAdd              0      0.00%     67.92% # Type of FU issued
system.cpu.iq.FU_type_0::SimdReduceAlu              0      0.00%     67.92% # Type of FU issued
system.cpu.iq.FU_type_0::SimdReduceCmp              0      0.00%     67.92% # Type of FU issued
system.cpu.iq.FU_type_0::SimdFloatReduceAdd            0      0.00%     67.92% # Type of FU issued
system.cpu.iq.FU_type_0::SimdFloatReduceCmp            0      0.00%     67.92% # Type of FU issued
system.cpu.iq.FU_type_0::SimdAes                    0      0.00%     67.92% # Type of FU issued
system.cpu.iq.FU_type_0::SimdAesMix                 0      0.00%     67.92% # Type of FU issued
system.cpu.iq.FU_type_0::SimdSha1Hash               0      0.00%     67.92% # Type of FU issued
system.cpu.iq.FU_type_0::SimdSha1Hash2              0      0.00%     67.92% # Type of FU issued
system.cpu.iq.FU_type_0::SimdSha256Hash             0      0.00%     67.92% # Type of FU issued
system.cpu.iq.FU_type_0::SimdSha256Hash2            0      0.00%     67.92% # Type of FU issued
system.cpu.iq.FU_type_0::SimdShaSigma2              0      0.00%     67.92% # Type of FU issued
system.cpu.iq.FU_type_0::SimdShaSigma3              0      0.00%     67.92% # Type of FU issued
system.cpu.iq.FU_type_0::SimdPredAlu                0      0.00%     67.92% # Type of FU issued
system.cpu.iq.FU_type_0::MemRead               191020     16.42%     84.34% # Type of FU issued
system.cpu.iq.FU_type_0::MemWrite              182121     15.66%    100.00% # Type of FU issued
system.cpu.iq.FU_type_0::FloatMemRead               0      0.00%    100.00% # Type of FU issued
system.cpu.iq.FU_type_0::FloatMemWrite              0      0.00%    100.00% # Type of FU issued
system.cpu.iq.FU_type_0::IprAccess                  0      0.00%    100.00% # Type of FU issued
system.cpu.iq.FU_type_0::InstPrefetch               0      0.00%    100.00% # Type of FU issued
system.cpu.iq.FU_type_0::total                1163337                       # Type of FU issued
system.cpu.iq.fp_alu_accesses                       0                       # Number of floating point alu accesses
system.cpu.iq.fp_inst_queue_reads                   0                       # Number of floating instruction queue reads
system.cpu.iq.fp_inst_queue_wakeup_accesses            0                       # Number of floating instruction queue wakeup accesses
system.cpu.iq.fp_inst_queue_writes                  0                       # Number of floating instruction queue writes
system.cpu.iq.fu_busy_cnt                       28023                       # FU busy when requested
system.cpu.iq.fu_busy_rate                   0.024088                       # FU busy rate (busy events/executed inst)
system.cpu.iq.fu_full::No_OpClass                   0      0.00%      0.00% # attempts to use FU when none available
system.cpu.iq.fu_full::IntAlu                    6129     21.87%     21.87% # attempts to use FU when none available
system.cpu.iq.fu_full::IntMult                      0      0.00%     21.87% # attempts to use FU when none available
system.cpu.iq.fu_full::IntDiv                       0      0.00%     21.87% # attempts to use FU when none available
system.cpu.iq.fu_full::FloatAdd                     0      0.00%     21.87% # attempts to use FU when none available
system.cpu.iq.fu_full::FloatCmp                     0      0.00%     21.87% # attempts to use FU when none available
system.cpu.iq.fu_full::FloatCvt                     0      0.00%     21.87% # attempts to use FU when none available
system.cpu.iq.fu_full::FloatMult                    0      0.00%     21.87% # attempts to use FU when none available
system.cpu.iq.fu_full::FloatMultAcc                 0      0.00%     21.87% # attempts to use FU when none available
system.cpu.iq.fu_full::FloatDiv                     0      0.00%     21.87% # attempts to use FU when none available
system.cpu.iq.fu_full::FloatMisc                    0      0.00%     21.87% # attempts to use FU when none available
system.cpu.iq.fu_full::FloatSqrt                    0      0.00%     21.87% # attempts to use FU when none available
system.cpu.iq.fu_full::SimdAdd                      0      0.00%     21.87% # attempts to use FU when none available
system.cpu.iq.fu_full::SimdAddAcc                   0      0.00%     21.87% # attempts to use FU when none available
system.cpu.iq.fu_full::SimdAlu                      2      0.01%     21.88% # attempts to use FU when none available
system.cpu.iq.fu_full::SimdCmp                      2      0.01%     21.89% # attempts to use FU when none available
system.cpu.iq.fu_full::SimdCvt                      0      0.00%     21.89% # attempts to use FU when none available
system.cpu.iq.fu_full::SimdMisc                     0      0.00%     21.89% # attempts to use FU when none available
system.cpu.iq.fu_full::SimdMult                     0      0.00%     21.89% # attempts to use FU when none available
system.cpu.iq.fu_full::SimdMultAcc                  0      0.00%     21.89% # attempts to use FU when none available
system.cpu.iq.fu_full::SimdShift                    0      0.00%     21.89% # attempts to use FU when none available
system.cpu.iq.fu_full::SimdShiftAcc                 0      0.00%     21.89% # attempts to use FU when none available
system.cpu.iq.fu_full::SimdDiv                      0      0.00%     21.89% # attempts to use FU when none available
system.cpu.iq.fu_full::SimdSqrt                     0      0.00%     21.89% # attempts to use FU when none available
system.cpu.iq.fu_full::SimdFloatAdd                 0      0.00%     21.89% # attempts to use FU when none available
system.cpu.iq.fu_full::SimdFloatAlu                 0      0.00%     21.89% # attempts to use FU when none available
system.cpu.iq.fu_full::SimdFloatCmp                 0      0.00%     21.89% # attempts to use FU when none available
system.cpu.iq.fu_full::SimdFloatCvt                 0      0.00%     21.89% # attempts to use FU when none available
system.cpu.iq.fu_full::SimdFloatDiv                 0      0.00%     21.89% # attempts to use FU when none available
system.cpu.iq.fu_full::SimdFloatMisc                0      0.00%     21.89% # attempts to use FU when none available
system.cpu.iq.fu_full::SimdFloatMult                0      0.00%     21.89% # attempts to use FU when none available
system.cpu.iq.fu_full::SimdFloatMultAcc             0      0.00%     21.89% # attempts to use FU when none available
system.cpu.iq.fu_full::SimdFloatSqrt                0      0.00%     21.89% # attempts to use FU when none available
system.cpu.iq.fu_full::SimdReduceAdd                0      0.00%     21.89% # attempts to use FU when none available
system.cpu.iq.fu_full::SimdReduceAlu                0      0.00%     21.89% # attempts to use FU when none available
system.cpu.iq.fu_full::SimdReduceCmp                0      0.00%     21.89% # attempts to use FU when none available
system.cpu.iq.fu_full::SimdFloatReduceAdd            0      0.00%     21.89% # attempts to use FU when none available
system.cpu.iq.fu_full::SimdFloatReduceCmp            0      0.00%     21.89% # attempts to use FU when none available
system.cpu.iq.fu_full::SimdAes                      0      0.00%     21.89% # attempts to use FU when none available
system.cpu.iq.fu_full::SimdAesMix                   0      0.00%     21.89% # attempts to use FU when none available
system.cpu.iq.fu_full::SimdSha1Hash                 0      0.00%     21.89% # attempts to use FU when none available
system.cpu.iq.fu_full::SimdSha1Hash2                0      0.00%     21.89% # attempts to use FU when none available
system.cpu.iq.fu_full::SimdSha256Hash               0      0.00%     21.89% # attempts to use FU when none available
system.cpu.iq.fu_full::SimdSha256Hash2              0      0.00%     21.89% # attempts to use FU when none available
system.cpu.iq.fu_full::SimdShaSigma2                0      0.00%     21.89% # attempts to use FU when none available
system.cpu.iq.fu_full::SimdShaSigma3                0      0.00%     21.89% # attempts to use FU when none available
system.cpu.iq.fu_full::SimdPredAlu                  0      0.00%     21.89% # attempts to use FU when none available
system.cpu.iq.fu_full::MemRead                   7758     27.68%     49.57% # attempts to use FU when none available
system.cpu.iq.fu_full::MemWrite                 14132     50.43%    100.00% # attempts to use FU when none available
system.cpu.iq.fu_full::FloatMemRead                 0      0.00%    100.00% # attempts to use FU when none available
system.cpu.iq.fu_full::FloatMemWrite                0      0.00%    100.00% # attempts to use FU when none available
system.cpu.iq.fu_full::IprAccess                    0      0.00%    100.00% # attempts to use FU when none available
system.cpu.iq.fu_full::InstPrefetch                 0      0.00%    100.00% # attempts to use FU when none available
system.cpu.iq.int_alu_accesses                1168890                       # Number of integer alu accesses
system.cpu.iq.int_inst_queue_reads            3003553                       # Number of integer instruction queue reads
system.cpu.iq.int_inst_queue_wakeup_accesses      1122978                       # Number of integer instruction queue wakeup accesses
system.cpu.iq.int_inst_queue_writes           1141324                       # Number of integer instruction queue writes
system.cpu.iq.iqInstsAdded                    1146803                       # Number of instructions added to the IQ (excludes non-spec)
system.cpu.iq.iqInstsIssued                   1163337                       # Number of instructions issued
system.cpu.iq.iqNonSpecInstsAdded                1268                       # Number of non-speculative instructions added to the IQ
system.cpu.iq.iqSquashedInstsExamined           13640                       # Number of squashed instructions iterated over during squash; mainly for profiling
system.cpu.iq.iqSquashedInstsIssued               107                       # Number of squashed instructions issued
system.cpu.iq.iqSquashedNonSpecRemoved             22                       # Number of squashed non-spec instructions that were removed
system.cpu.iq.iqSquashedOperandsExamined         7759                       # Number of squashed operands that are examined and possibly removed from graph
system.cpu.iq.issued_per_cycle::samples        691307                       # Number of insts issued each cycle
system.cpu.iq.issued_per_cycle::mean         1.682808                       # Number of insts issued each cycle
system.cpu.iq.issued_per_cycle::stdev        2.159979                       # Number of insts issued each cycle
system.cpu.iq.issued_per_cycle::underflows            0      0.00%      0.00% # Number of insts issued each cycle
system.cpu.iq.issued_per_cycle::0              347778     50.31%     50.31% # Number of insts issued each cycle
system.cpu.iq.issued_per_cycle::1               64109      9.27%     59.58% # Number of insts issued each cycle
system.cpu.iq.issued_per_cycle::2               71730     10.38%     69.96% # Number of insts issued each cycle
system.cpu.iq.issued_per_cycle::3               59461      8.60%     78.56% # Number of insts issued each cycle
system.cpu.iq.issued_per_cycle::4               53248      7.70%     86.26% # Number of insts issued each cycle
system.cpu.iq.issued_per_cycle::5               38721      5.60%     91.86% # Number of insts issued each cycle
system.cpu.iq.issued_per_cycle::6               32768      4.74%     96.60% # Number of insts issued each cycle
system.cpu.iq.issued_per_cycle::7               13756      1.99%     98.59% # Number of insts issued each cycle
system.cpu.iq.issued_per_cycle::8                9736      1.41%    100.00% # Number of insts issued each cycle
system.cpu.iq.issued_per_cycle::overflows            0      0.00%    100.00% # Number of insts issued each cycle
system.cpu.iq.issued_per_cycle::min_value            0                       # Number of insts issued each cycle
system.cpu.iq.issued_per_cycle::max_value            8                       # Number of insts issued each cycle
system.cpu.iq.issued_per_cycle::total          691307                       # Number of insts issued each cycle
system.cpu.iq.rate                           1.581917                       # Inst issue rate
system.cpu.iq.vec_alu_accesses                  21635                       # Number of vector alu accesses
system.cpu.iq.vec_inst_queue_reads              42556                       # Number of vector instruction queue reads
system.cpu.iq.vec_inst_queue_wakeup_accesses        20004                       # Number of vector instruction queue wakeup accesses
system.cpu.iq.vec_inst_queue_writes             20418                       # Number of vector instruction queue writes
system.cpu.itb.accesses                             0                       # DTB accesses
system.cpu.itb.align_faults                         0                       # Number of TLB faults due to alignment restrictions
system.cpu.itb.domain_faults                        0                       # Number of TLB faults due to domain restrictions
system.cpu.itb.flush_entries                        0                       # Number of entries that have been flushed from TLB
system.cpu.itb.flush_tlb                            0                       # Number of times complete TLB was flushed
system.cpu.itb.flush_tlb_asid                       0                       # Number of times TLB was flushed by ASID
system.cpu.itb.flush_tlb_mva                        0                       # Number of times TLB was flushed by MVA
system.cpu.itb.flush_tlb_mva_asid                   0                       # Number of times TLB was flushed by MVA & ASID
system.cpu.itb.hits                                 0                       # DTB hits
system.cpu.itb.inst_accesses                        0                       # ITB inst accesses
system.cpu.itb.inst_hits                            0                       # ITB inst hits
system.cpu.itb.inst_misses                          0                       # ITB inst misses
system.cpu.itb.misses                               0                       # DTB misses
system.cpu.itb.perms_faults                         0                       # Number of TLB faults due to permissions restrictions
system.cpu.itb.prefetch_faults                      0                       # Number of TLB faults due to prefetch
system.cpu.itb.read_accesses                        0                       # DTB read accesses
system.cpu.itb.read_hits                            0                       # DTB read hits
system.cpu.itb.read_misses                          0                       # DTB read misses
system.cpu.itb.stage2_mmu.stage2_tlb.accesses            0                       # DTB accesses
system.cpu.itb.stage2_mmu.stage2_tlb.align_faults            0                       # Number of TLB faults due to alignment restrictions
system.cpu.itb.stage2_mmu.stage2_tlb.domain_faults            0                       # Number of TLB faults due to domain restrictions
system.cpu.itb.stage2_mmu.stage2_tlb.flush_entries            0                       # Number of entries that have been flushed from TLB
system.cpu.itb.stage2_mmu.stage2_tlb.flush_tlb            0                       # Number of times complete TLB was flushed
system.cpu.itb.stage2_mmu.stage2_tlb.flush_tlb_asid            0                       # Number of times TLB was flushed by ASID
system.cpu.itb.stage2_mmu.stage2_tlb.flush_tlb_mva            0                       # Number of times TLB was flushed by MVA
system.cpu.itb.stage2_mmu.stage2_tlb.flush_tlb_mva_asid            0                       # Number of times TLB was flushed by MVA & ASID
system.cpu.itb.stage2_mmu.stage2_tlb.hits            0                       # DTB hits
system.cpu.itb.stage2_mmu.stage2_tlb.inst_accesses            0                       # ITB inst accesses
system.cpu.itb.stage2_mmu.stage2_tlb.inst_hits            0                       # ITB inst hits
system.cpu.itb.stage2_mmu.stage2_tlb.inst_misses            0                       # ITB inst misses
system.cpu.itb.stage2_mmu.stage2_tlb.misses            0                       # DTB misses
system.cpu.itb.stage2_mmu.stage2_tlb.perms_faults            0                       # Number of TLB faults due to permissions restrictions
system.cpu.itb.stage2_mmu.stage2_tlb.prefetch_faults            0                       # Number of TLB faults due to prefetch
system.cpu.itb.stage2_mmu.stage2_tlb.read_accesses            0                       # DTB read accesses
system.cpu.itb.stage2_mmu.stage2_tlb.read_hits            0                       # DTB read hits
system.cpu.itb.stage2_mmu.stage2_tlb.read_misses            0                       # DTB read misses
system.cpu.itb.stage2_mmu.stage2_tlb.walker.walkRequestOrigin_Requested::Data            0                       # Table walker requests started/completed, data/inst
system.cpu.itb.stage2_mmu.stage2_tlb.walker.walkRequestOrigin_Requested::Inst            0                       # Table walker requests started/completed, data/inst
system.cpu.itb.stage2_mmu.stage2_tlb.walker.walkRequestOrigin_Requested::total            0                       # Table walker requests started/completed, data/inst
system.cpu.itb.stage2_mmu.stage2_tlb.walker.walkRequestOrigin_Completed::Data            0                       # Table walker requests started/completed, data/inst
system.cpu.itb.stage2_mmu.stage2_tlb.walker.walkRequestOrigin_Completed::Inst            0                       # Table walker requests started/completed, data/inst
system.cpu.itb.stage2_mmu.stage2_tlb.walker.walkRequestOrigin_Completed::total            0                       # Table walker requests started/completed, data/inst
system.cpu.itb.stage2_mmu.stage2_tlb.walker.walkRequestOrigin::total            0                       # Table walker requests started/completed, data/inst
system.cpu.itb.stage2_mmu.stage2_tlb.walker.walks            0                       # Table walker walks requested
system.cpu.itb.stage2_mmu.stage2_tlb.write_accesses            0                       # DTB write accesses
system.cpu.itb.stage2_mmu.stage2_tlb.write_hits            0                       # DTB write hits
system.cpu.itb.stage2_mmu.stage2_tlb.write_misses            0                       # DTB write misses
system.cpu.itb.walker.walkRequestOrigin_Requested::Data            0                       # Table walker requests started/completed, data/inst
system.cpu.itb.walker.walkRequestOrigin_Requested::Inst            0                       # Table walker requests started/completed, data/inst
system.cpu.itb.walker.walkRequestOrigin_Requested::total            0                       # Table walker requests started/completed, data/inst
system.cpu.itb.walker.walkRequestOrigin_Completed::Data            0                       # Table walker requests started/completed, data/inst
system.cpu.itb.walker.walkRequestOrigin_Completed::Inst            0                       # Table walker requests started/completed, data/inst
system.cpu.itb.walker.walkRequestOrigin_Completed::total            0                       # Table walker requests started/completed, data/inst
system.cpu.itb.walker.walkRequestOrigin::total            0                       # Table walker requests started/completed, data/inst
system.cpu.itb.walker.walks                         0                       # Table walker walks requested
system.cpu.itb.write_accesses                       0                       # DTB write accesses
system.cpu.itb.write_hits                           0                       # DTB write hits
system.cpu.itb.write_misses                         0                       # DTB write misses
system.cpu.memDep0.conflictingLoads              8104                       # Number of conflicting loads.
system.cpu.memDep0.conflictingStores             4280                       # Number of conflicting stores.
system.cpu.memDep0.insertedLoads               172958                       # Number of loads inserted to the mem dependence unit.
system.cpu.memDep0.insertedStores              182705                       # Number of stores inserted to the mem dependence unit.
system.cpu.misc_regfile_reads                  790553                       # number of misc regfile reads
system.cpu.misc_regfile_writes                   4929                       # number of misc regfile writes
system.cpu.numCycles                           735397                       # number of cpu cycles simulated
system.cpu.numWorkItemsCompleted                    0                       # number of work items this cpu completed
system.cpu.numWorkItemsStarted                      0                       # number of work items this cpu started
system.cpu.rename.BlockCycles                    8144                       # Number of cycles rename is blocking
system.cpu.rename.CommittedMaps               1211180                       # Number of HB maps that are committed
system.cpu.rename.IQFullEvents                     78                       # Number of times rename has blocked due to IQ full
system.cpu.rename.IdleCycles                   144400                       # Number of cycles rename is idle
system.cpu.rename.ROBFullEvents                     5                       # Number of times rename has blocked due to ROB full
system.cpu.rename.RenameLookups               1853621                       # Number of register rename lookups that rename has made
system.cpu.rename.RenamedInsts                1150742                       # Number of instructions processed by rename
system.cpu.rename.RenamedOperands             1225405                       # Number of destination operands rename has renamed
system.cpu.rename.RunCycles                    213580                       # Number of cycles rename is running
system.cpu.rename.SQFullEvents                  94115                       # Number of times rename has blocked due to SQ full
system.cpu.rename.SquashCycles                    659                       # Number of cycles rename is squashing
system.cpu.rename.UnblockCycles                 97976                       # Number of cycles rename is unblocking
system.cpu.rename.UndoneMaps                    14197                       # Number of HB maps that are undone due to squashing
system.cpu.rename.int_rename_lookups          1309640                       # Number of integer rename lookups
system.cpu.rename.serializeStallCycles         226548                       # count of cycles rename stalled for serializing inst
system.cpu.rename.serializingInsts               3804                       # count of serializing insts renamed
system.cpu.rename.skidInsts                     26914                       # count of insts added to the skid buffer
system.cpu.rename.tempSerializingInsts           1268                       # count of temporary serializing insts renamed
system.cpu.rename.vec_rename_lookups            24498                       # Number of vector rename lookups
system.cpu.rob.rob_reads                      1769838                       # The number of ROB reads
system.cpu.rob.rob_writes                     2298321                       # The number of ROB writes
system.cpu.timesIdled                             377                       # Number of times that the entire CPU went into an idle state and unscheduled itself
system.cpu.vec_regfile_reads                    24286                       # number of vector regfile reads
system.cpu.vec_regfile_writes                   10051                       # number of vector regfile writes
system.cpu.workload.numSyscalls                    13                       # Number of system calls
system.membus.snoop_filter.hit_multi_requests            0                       # Number of requests hitting in the snoop filter with multiple (>1) holders of the requested data.
system.membus.snoop_filter.hit_multi_snoops            0                       # Number of snoops hitting in the snoop filter with multiple (>1) holders of the requested data.
system.membus.snoop_filter.hit_single_requests            0                       # Number of requests hitting in the snoop filter with a single holder of the requested data.
system.membus.snoop_filter.hit_single_snoops            0                       # Number of snoops hitting in the snoop filter with a single holder of the requested data.
system.membus.snoop_filter.tot_requests          4608                       # Total number of requests made to the snoop filter.
system.membus.snoop_filter.tot_snoops               0                       # Total number of snoops made to the snoop filter.
system.tol2bus.snoop_filter.hit_multi_requests            1                       # Number of requests hitting in the snoop filter with multiple (>1) holders of the requested data.
system.tol2bus.snoop_filter.hit_multi_snoops            0                       # Number of snoops hitting in the snoop filter with multiple (>1) holders of the requested data.
system.tol2bus.snoop_filter.hit_single_requests         3152                       # Number of requests hitting in the snoop filter with a single holder of the requested data.
system.tol2bus.snoop_filter.hit_single_snoops            0                       # Number of snoops hitting in the snoop filter with a single holder of the requested data.
system.tol2bus.snoop_filter.tot_requests         7783                       # Total number of requests made to the snoop filter.
system.tol2bus.snoop_filter.tot_snoops              0                       # Total number of snoops made to the snoop filter.
system.membus.trans_dist::ReadResp               1282                       # Transaction distribution
system.membus.trans_dist::ReadExReq              3310                       # Transaction distribution
system.membus.trans_dist::ReadExResp             3310                       # Transaction distribution
system.membus.trans_dist::ReadSharedReq          1282                       # Transaction distribution
system.membus.trans_dist::InvalidateReq            16                       # Transaction distribution
system.membus.pkt_count_system.l2.mem_side::system.mem_ctrls.port         9200                       # Packet count per connected master and slave (bytes)
system.membus.pkt_count::total                   9200                       # Packet count per connected master and slave (bytes)
system.membus.pkt_size_system.l2.mem_side::system.mem_ctrls.port       293888                       # Cumulative packet size per connected master and slave (bytes)
system.membus.pkt_size::total                  293888                       # Cumulative packet size per connected master and slave (bytes)
system.membus.snoops                                0                       # Total snoops (count)
system.membus.snoopTraffic                          0                       # Total snoop traffic (bytes)
system.membus.snoop_fanout::samples              4608                       # Request fanout histogram
system.membus.snoop_fanout::mean                    0                       # Request fanout histogram
system.membus.snoop_fanout::stdev                   0                       # Request fanout histogram
system.membus.snoop_fanout::underflows              0      0.00%      0.00% # Request fanout histogram
system.membus.snoop_fanout::0                    4608    100.00%    100.00% # Request fanout histogram
system.membus.snoop_fanout::1                       0      0.00%    100.00% # Request fanout histogram
system.membus.snoop_fanout::overflows               0      0.00%    100.00% # Request fanout histogram
system.membus.snoop_fanout::min_value               0                       # Request fanout histogram
system.membus.snoop_fanout::max_value               0                       # Request fanout histogram
system.membus.snoop_fanout::total                4608                       # Request fanout histogram
system.membus.reqLayer0.occupancy             5622500                       # Layer occupancy (ticks)
system.membus.reqLayer0.utilization               1.5                       # Layer utilization (%)
system.membus.respLayer1.occupancy           23814250                       # Layer occupancy (ticks)
system.membus.respLayer1.utilization              6.5                       # Layer utilization (%)
system.membus.power_state.pwrStateResidencyTicks::UNDEFINED    367698000                       # Cumulative time (in ticks) in various power states
system.tol2bus.trans_dist::ReadResp              1303                       # Transaction distribution
system.tol2bus.trans_dist::WritebackDirty         2917                       # Transaction distribution
system.tol2bus.trans_dist::WritebackClean           70                       # Transaction distribution
system.tol2bus.trans_dist::CleanEvict             165                       # Transaction distribution
system.tol2bus.trans_dist::ReadExReq             3312                       # Transaction distribution
system.tol2bus.trans_dist::ReadExResp            3312                       # Transaction distribution
system.tol2bus.trans_dist::ReadCleanReq           525                       # Transaction distribution
system.tol2bus.trans_dist::ReadSharedReq          778                       # Transaction distribution
system.tol2bus.trans_dist::InvalidateReq           16                       # Transaction distribution
system.tol2bus.trans_dist::InvalidateResp           16                       # Transaction distribution
system.tol2bus.pkt_count_system.cpu.icache.mem_side::system.l2.cpu_side         1120                       # Packet count per connected master and slave (bytes)
system.tol2bus.pkt_count_system.cpu.dcache.mem_side::system.l2.cpu_side        11294                       # Packet count per connected master and slave (bytes)
system.tol2bus.pkt_count::total                 12414                       # Packet count per connected master and slave (bytes)
system.tol2bus.pkt_size_system.cpu.icache.mem_side::system.l2.cpu_side        38080                       # Cumulative packet size per connected master and slave (bytes)
system.tol2bus.pkt_size_system.cpu.dcache.mem_side::system.l2.cpu_side       448448                       # Cumulative packet size per connected master and slave (bytes)
system.tol2bus.pkt_size::total                 486528                       # Cumulative packet size per connected master and slave (bytes)
system.tol2bus.snoops                               0                       # Total snoops (count)
system.tol2bus.snoopTraffic                         0                       # Total snoop traffic (bytes)
system.tol2bus.snoop_fanout::samples             4631                       # Request fanout histogram
system.tol2bus.snoop_fanout::mean            0.000216                       # Request fanout histogram
system.tol2bus.snoop_fanout::stdev           0.014695                       # Request fanout histogram
system.tol2bus.snoop_fanout::underflows             0      0.00%      0.00% # Request fanout histogram
system.tol2bus.snoop_fanout::0                   4630     99.98%     99.98% # Request fanout histogram
system.tol2bus.snoop_fanout::1                      1      0.02%    100.00% # Request fanout histogram
system.tol2bus.snoop_fanout::2                      0      0.00%    100.00% # Request fanout histogram
system.tol2bus.snoop_fanout::overflows              0      0.00%    100.00% # Request fanout histogram
system.tol2bus.snoop_fanout::min_value              0                       # Request fanout histogram
system.tol2bus.snoop_fanout::max_value              1                       # Request fanout histogram
system.tol2bus.snoop_fanout::total               4631                       # Request fanout histogram
system.tol2bus.reqLayer0.occupancy            6878500                       # Layer occupancy (ticks)
system.tol2bus.reqLayer0.utilization              1.9                       # Layer utilization (%)
system.tol2bus.respLayer1.occupancy           6143000                       # Layer occupancy (ticks)
system.tol2bus.respLayer1.utilization             1.7                       # Layer utilization (%)
system.tol2bus.respLayer0.occupancy            787500                       # Layer occupancy (ticks)
system.tol2bus.respLayer0.utilization             0.2                       # Layer utilization (%)
system.tol2bus.power_state.pwrStateResidencyTicks::UNDEFINED    367698000                       # Cumulative time (in ticks) in various power states
system.voltage_domain.voltage                       1                       # Voltage in Volts
system.clk_domain.clock                          1000                       # Clock period in ticks
system.l2.demand_hits::.cpu.inst                    4                       # number of demand (read+write) hits
system.l2.demand_hits::.cpu.data                   19                       # number of demand (read+write) hits
system.l2.demand_hits::total                       23                       # number of demand (read+write) hits
system.l2.overall_hits::.cpu.inst                   4                       # number of overall hits
system.l2.overall_hits::.cpu.data                  19                       # number of overall hits
system.l2.overall_hits::total                      23                       # number of overall hits
system.l2.demand_misses::.cpu.inst                521                       # number of demand (read+write) misses
system.l2.demand_misses::.cpu.data               4071                       # number of demand (read+write) misses
system.l2.demand_misses::total                   4592                       # number of demand (read+write) misses
system.l2.overall_misses::.cpu.inst               521                       # number of overall misses
system.l2.overall_misses::.cpu.data              4071                       # number of overall misses
system.l2.overall_misses::total                  4592                       # number of overall misses
system.l2.demand_miss_latency::.cpu.inst     40620000                       # number of demand (read+write) miss cycles
system.l2.demand_miss_latency::.cpu.data    322494000                       # number of demand (read+write) miss cycles
system.l2.demand_miss_latency::total        363114000                       # number of demand (read+write) miss cycles
system.l2.overall_miss_latency::.cpu.inst     40620000                       # number of overall miss cycles
system.l2.overall_miss_latency::.cpu.data    322494000                       # number of overall miss cycles
system.l2.overall_miss_latency::total       363114000                       # number of overall miss cycles
system.l2.demand_accesses::.cpu.inst              525                       # number of demand (read+write) accesses
system.l2.demand_accesses::.cpu.data             4090                       # number of demand (read+write) accesses
system.l2.demand_accesses::total                 4615                       # number of demand (read+write) accesses
system.l2.overall_accesses::.cpu.inst             525                       # number of overall (read+write) accesses
system.l2.overall_accesses::.cpu.data            4090                       # number of overall (read+write) accesses
system.l2.overall_accesses::total                4615                       # number of overall (read+write) accesses
system.l2.demand_miss_rate::.cpu.inst        0.992381                       # miss rate for demand accesses
system.l2.demand_miss_rate::.cpu.data        0.995355                       # miss rate for demand accesses
system.l2.demand_miss_rate::total            0.995016                       # miss rate for demand accesses
system.l2.overall_miss_rate::.cpu.inst       0.992381                       # miss rate for overall accesses
system.l2.overall_miss_rate::.cpu.data       0.995355                       # miss rate for overall accesses
system.l2.overall_miss_rate::total           0.995016                       # miss rate for overall accesses
system.l2.demand_avg_miss_latency::.cpu.inst 77965.451056                       # average overall miss latency
system.l2.demand_avg_miss_latency::.cpu.data 79217.391304                       # average overall miss latency
system.l2.demand_avg_miss_latency::total 79075.348432                       # average overall miss latency
system.l2.overall_avg_miss_latency::.cpu.inst 77965.451056                       # average overall miss latency
system.l2.overall_avg_miss_latency::.cpu.data 79217.391304                       # average overall miss latency
system.l2.overall_avg_miss_latency::total 79075.348432                       # average overall miss latency
system.l2.blocked_cycles::no_mshrs                  0                       # number of cycles access was blocked
system.l2.blocked_cycles::no_targets                0                       # number of cycles access was blocked
system.l2.blocked::no_mshrs                         0                       # number of cycles access was blocked
system.l2.blocked::no_targets                       0                       # number of cycles access was blocked
system.l2.avg_blocked_cycles::no_mshrs            nan                       # average number of cycles each access was blocked
system.l2.avg_blocked_cycles::no_targets          nan                       # average number of cycles each access was blocked
system.l2.demand_mshr_misses::.cpu.inst           521                       # number of demand (read+write) MSHR misses
system.l2.demand_mshr_misses::.cpu.data          4071                       # number of demand (read+write) MSHR misses
system.l2.demand_mshr_misses::total              4592                       # number of demand (read+write) MSHR misses
system.l2.overall_mshr_misses::.cpu.inst          521                       # number of overall MSHR misses
system.l2.overall_mshr_misses::.cpu.data         4071                       # number of overall MSHR misses
system.l2.overall_mshr_misses::total             4592                       # number of overall MSHR misses
system.l2.demand_mshr_miss_latency::.cpu.inst     35410000                       # number of demand (read+write) MSHR miss cycles
system.l2.demand_mshr_miss_latency::.cpu.data    281784000                       # number of demand (read+write) MSHR miss cycles
system.l2.demand_mshr_miss_latency::total    317194000                       # number of demand (read+write) MSHR miss cycles
system.l2.overall_mshr_miss_latency::.cpu.inst     35410000                       # number of overall MSHR miss cycles
system.l2.overall_mshr_miss_latency::.cpu.data    281784000                       # number of overall MSHR miss cycles
system.l2.overall_mshr_miss_latency::total    317194000                       # number of overall MSHR miss cycles
system.l2.demand_mshr_miss_rate::.cpu.inst     0.992381                       # mshr miss rate for demand accesses
system.l2.demand_mshr_miss_rate::.cpu.data     0.995355                       # mshr miss rate for demand accesses
system.l2.demand_mshr_miss_rate::total       0.995016                       # mshr miss rate for demand accesses
system.l2.overall_mshr_miss_rate::.cpu.inst     0.992381                       # mshr miss rate for overall accesses
system.l2.overall_mshr_miss_rate::.cpu.data     0.995355                       # mshr miss rate for overall accesses
system.l2.overall_mshr_miss_rate::total      0.995016                       # mshr miss rate for overall accesses
system.l2.demand_avg_mshr_miss_latency::.cpu.inst 67965.451056                       # average overall mshr miss latency
system.l2.demand_avg_mshr_miss_latency::.cpu.data 69217.391304                       # average overall mshr miss latency
system.l2.demand_avg_mshr_miss_latency::total 69075.348432                       # average overall mshr miss latency
system.l2.overall_avg_mshr_miss_latency::.cpu.inst 67965.451056                       # average overall mshr miss latency
system.l2.overall_avg_mshr_miss_latency::.cpu.data 69217.391304                       # average overall mshr miss latency
system.l2.overall_avg_mshr_miss_latency::total 69075.348432                       # average overall mshr miss latency
system.l2.replacements                              0                       # number of replacements
system.l2.WritebackDirty_hits::.writebacks         2917                       # number of WritebackDirty hits
system.l2.WritebackDirty_hits::total             2917                       # number of WritebackDirty hits
system.l2.WritebackDirty_accesses::.writebacks         2917                       # number of WritebackDirty accesses(hits+misses)
system.l2.WritebackDirty_accesses::total         2917                       # number of WritebackDirty accesses(hits+misses)
system.l2.WritebackClean_hits::.writebacks           70                       # number of WritebackClean hits
system.l2.WritebackClean_hits::total               70                       # number of WritebackClean hits
system.l2.WritebackClean_accesses::.writebacks           70                       # number of WritebackClean accesses(hits+misses)
system.l2.WritebackClean_accesses::total           70                       # number of WritebackClean accesses(hits+misses)
system.l2.ReadExReq_hits::.cpu.data                 2                       # number of ReadExReq hits
system.l2.ReadExReq_hits::total                     2                       # number of ReadExReq hits
system.l2.ReadExReq_misses::.cpu.data            3310                       # number of ReadExReq misses
system.l2.ReadExReq_misses::total                3310                       # number of ReadExReq misses
system.l2.ReadExReq_miss_latency::.cpu.data    256505000                       # number of ReadExReq miss cycles
system.l2.ReadExReq_miss_latency::total     256505000                       # number of ReadExReq miss cycles
system.l2.ReadExReq_accesses::.cpu.data          3312                       # number of ReadExReq accesses(hits+misses)
system.l2.ReadExReq_accesses::total              3312                       # number of ReadExReq accesses(hits+misses)
system.l2.ReadExReq_miss_rate::.cpu.data     0.999396                       # miss rate for ReadExReq accesses
system.l2.ReadExReq_miss_rate::total         0.999396                       # miss rate for ReadExReq accesses
system.l2.ReadExReq_avg_miss_latency::.cpu.data 77493.957704                       # average ReadExReq miss latency
system.l2.ReadExReq_avg_miss_latency::total 77493.957704                       # average ReadExReq miss latency
system.l2.ReadExReq_mshr_misses::.cpu.data         3310                       # number of ReadExReq MSHR misses
system.l2.ReadExReq_mshr_misses::total           3310                       # number of ReadExReq MSHR misses
system.l2.ReadExReq_mshr_miss_latency::.cpu.data    223405000                       # number of ReadExReq MSHR miss cycles
system.l2.ReadExReq_mshr_miss_latency::total    223405000                       # number of ReadExReq MSHR miss cycles
system.l2.ReadExReq_mshr_miss_rate::.cpu.data     0.999396                       # mshr miss rate for ReadExReq accesses
system.l2.ReadExReq_mshr_miss_rate::total     0.999396                       # mshr miss rate for ReadExReq accesses
system.l2.ReadExReq_avg_mshr_miss_latency::.cpu.data 67493.957704                       # average ReadExReq mshr miss latency
system.l2.ReadExReq_avg_mshr_miss_latency::total 67493.957704                       # average ReadExReq mshr miss latency
system.l2.ReadCleanReq_hits::.cpu.inst              4                       # number of ReadCleanReq hits
system.l2.ReadCleanReq_hits::total                  4                       # number of ReadCleanReq hits
system.l2.ReadCleanReq_misses::.cpu.inst          521                       # number of ReadCleanReq misses
system.l2.ReadCleanReq_misses::total              521                       # number of ReadCleanReq misses
system.l2.ReadCleanReq_miss_latency::.cpu.inst     40620000                       # number of ReadCleanReq miss cycles
system.l2.ReadCleanReq_miss_latency::total     40620000                       # number of ReadCleanReq miss cycles
system.l2.ReadCleanReq_accesses::.cpu.inst          525                       # number of ReadCleanReq accesses(hits+misses)
system.l2.ReadCleanReq_accesses::total            525                       # number of ReadCleanReq accesses(hits+misses)
system.l2.ReadCleanReq_miss_rate::.cpu.inst     0.992381                       # miss rate for ReadCleanReq accesses
system.l2.ReadCleanReq_miss_rate::total      0.992381                       # miss rate for ReadCleanReq accesses
system.l2.ReadCleanReq_avg_miss_latency::.cpu.inst 77965.451056                       # average ReadCleanReq miss latency
system.l2.ReadCleanReq_avg_miss_latency::total 77965.451056                       # average ReadCleanReq miss latency
system.l2.ReadCleanReq_mshr_misses::.cpu.inst          521                       # number of ReadCleanReq MSHR misses
system.l2.ReadCleanReq_mshr_misses::total          521                       # number of ReadCleanReq MSHR misses
system.l2.ReadCleanReq_mshr_miss_latency::.cpu.inst     35410000                       # number of ReadCleanReq MSHR miss cycles
[...]
system.cpu.dcache.overall_miss_latency::total    627648287                       # number of overall miss cycles
system.cpu.dcache.demand_accesses::.cpu.data       340347                       # number of demand (read+write) accesses
system.cpu.dcache.demand_accesses::total       340347                       # number of demand (read+write) accesses
system.cpu.dcache.overall_accesses::.cpu.data       341047                       # number of overall (read+write) accesses
system.cpu.dcache.overall_accesses::total       341047                       # number of overall (read+write) accesses
system.cpu.dcache.demand_miss_rate::.cpu.data     0.025292                       # miss rate for demand accesses
system.cpu.dcache.demand_miss_rate::total     0.025292                       # miss rate for demand accesses
system.cpu.dcache.overall_miss_rate::.cpu.data     0.025472                       # miss rate for overall accesses
system.cpu.dcache.overall_miss_rate::total     0.025472                       # miss rate for overall accesses
system.cpu.dcache.demand_avg_miss_latency::.cpu.data 72914.531482                       # average overall miss latency
system.cpu.dcache.demand_avg_miss_latency::total 72914.531482                       # average overall miss latency
system.cpu.dcache.overall_avg_miss_latency::.cpu.data 72251.443191                       # average overall miss latency
system.cpu.dcache.overall_avg_miss_latency::total 72251.443191                       # average overall miss latency
system.cpu.dcache.blocked_cycles::no_mshrs        98471                       # number of cycles access was blocked
system.cpu.dcache.blocked_cycles::no_targets            0                       # number of cycles access was blocked
system.cpu.dcache.blocked::no_mshrs              1365                       # number of cycles access was blocked
system.cpu.dcache.blocked::no_targets               0                       # number of cycles access was blocked
system.cpu.dcache.avg_blocked_cycles::no_mshrs    72.139927                       # average number of cycles each access was blocked
system.cpu.dcache.avg_blocked_cycles::no_targets          nan                       # average number of cycles each access was blocked
system.cpu.dcache.writebacks::.writebacks         2917                       # number of writebacks
system.cpu.dcache.writebacks::total              2917                       # number of writebacks
system.cpu.dcache.demand_mshr_hits::.cpu.data         4507                       # number of demand (read+write) MSHR hits
system.cpu.dcache.demand_mshr_hits::total         4507                       # number of demand (read+write) MSHR hits
system.cpu.dcache.overall_mshr_hits::.cpu.data         4507                       # number of overall MSHR hits
system.cpu.dcache.overall_mshr_hits::total         4507                       # number of overall MSHR hits
system.cpu.dcache.demand_mshr_misses::.cpu.data         4101                       # number of demand (read+write) MSHR misses
system.cpu.dcache.demand_mshr_misses::total         4101                       # number of demand (read+write) MSHR misses
system.cpu.dcache.overall_mshr_misses::.cpu.data         4105                       # number of overall MSHR misses
system.cpu.dcache.overall_mshr_misses::total         4105                       # number of overall MSHR misses
system.cpu.dcache.demand_mshr_miss_latency::.cpu.data    330820406                       # number of demand (read+write) MSHR miss cycles
system.cpu.dcache.demand_mshr_miss_latency::total    330820406                       # number of demand (read+write) MSHR miss cycles
system.cpu.dcache.overall_mshr_miss_latency::.cpu.data    331175406                       # number of overall MSHR miss cycles
system.cpu.dcache.overall_mshr_miss_latency::total    331175406                       # number of overall MSHR miss cycles
system.cpu.dcache.demand_mshr_miss_rate::.cpu.data     0.012049                       # mshr miss rate for demand accesses
system.cpu.dcache.demand_mshr_miss_rate::total     0.012049                       # mshr miss rate for demand accesses
system.cpu.dcache.overall_mshr_miss_rate::.cpu.data     0.012036                       # mshr miss rate for overall accesses
system.cpu.dcache.overall_mshr_miss_rate::total     0.012036                       # mshr miss rate for overall accesses
system.cpu.dcache.demand_avg_mshr_miss_latency::.cpu.data 80668.228725                       # average overall mshr miss latency
system.cpu.dcache.demand_avg_mshr_miss_latency::total 80668.228725                       # average overall mshr miss latency
system.cpu.dcache.overall_avg_mshr_miss_latency::.cpu.data 80676.103776                       # average overall mshr miss latency
system.cpu.dcache.overall_avg_mshr_miss_latency::total 80676.103776                       # average overall mshr miss latency
system.cpu.dcache.replacements                   3082                       # number of replacements
system.cpu.dcache.ReadReq_hits::.cpu.data       159272                       # number of ReadReq hits
system.cpu.dcache.ReadReq_hits::total          159272                       # number of ReadReq hits
system.cpu.dcache.ReadReq_misses::.cpu.data         2426                       # number of ReadReq misses
system.cpu.dcache.ReadReq_misses::total          2426                       # number of ReadReq misses
system.cpu.dcache.ReadReq_miss_latency::.cpu.data    165556000                       # number of ReadReq miss cycles
system.cpu.dcache.ReadReq_miss_latency::total    165556000                       # number of ReadReq miss cycles
system.cpu.dcache.ReadReq_accesses::.cpu.data       161698                       # number of ReadReq accesses(hits+misses)
system.cpu.dcache.ReadReq_accesses::total       161698                       # number of ReadReq accesses(hits+misses)
system.cpu.dcache.ReadReq_miss_rate::.cpu.data     0.015003                       # miss rate for ReadReq accesses
system.cpu.dcache.ReadReq_miss_rate::total     0.015003                       # miss rate for ReadReq accesses
system.cpu.dcache.ReadReq_avg_miss_latency::.cpu.data 68242.374279                       # average ReadReq miss latency
system.cpu.dcache.ReadReq_avg_miss_latency::total 68242.374279                       # average ReadReq miss latency
system.cpu.dcache.ReadReq_mshr_hits::.cpu.data         1648                       # number of ReadReq MSHR hits
system.cpu.dcache.ReadReq_mshr_hits::total         1648                       # number of ReadReq MSHR hits
system.cpu.dcache.ReadReq_mshr_misses::.cpu.data          778                       # number of ReadReq MSHR misses
system.cpu.dcache.ReadReq_mshr_misses::total          778                       # number of ReadReq MSHR misses
system.cpu.dcache.ReadReq_mshr_miss_latency::.cpu.data     67585500                       # number of ReadReq MSHR miss cycles
system.cpu.dcache.ReadReq_mshr_miss_latency::total     67585500                       # number of ReadReq MSHR miss cycles
system.cpu.dcache.ReadReq_mshr_miss_rate::.cpu.data     0.004811                       # mshr miss rate for ReadReq accesses
system.cpu.dcache.ReadReq_mshr_miss_rate::total     0.004811                       # mshr miss rate for ReadReq accesses
system.cpu.dcache.ReadReq_avg_mshr_miss_latency::.cpu.data 86870.822622                       # average ReadReq mshr miss latency
system.cpu.dcache.ReadReq_avg_mshr_miss_latency::total 86870.822622                       # average ReadReq mshr miss latency
system.cpu.dcache.WriteReq_hits::.cpu.data       172467                       # number of WriteReq hits
system.cpu.dcache.WriteReq_hits::total         172467                       # number of WriteReq hits
system.cpu.dcache.WriteReq_misses::.cpu.data         6169                       # number of WriteReq misses
system.cpu.dcache.WriteReq_misses::total         6169                       # number of WriteReq misses
system.cpu.dcache.WriteReq_miss_latency::.cpu.data    461679292                       # number of WriteReq miss cycles
system.cpu.dcache.WriteReq_miss_latency::total    461679292                       # number of WriteReq miss cycles
system.cpu.dcache.WriteReq_accesses::.cpu.data       178636                       # number of WriteReq accesses(hits+misses)
system.cpu.dcache.WriteReq_accesses::total       178636                       # number of WriteReq accesses(hits+misses)
system.cpu.dcache.WriteReq_miss_rate::.cpu.data     0.034534                       # miss rate for WriteReq accesses
system.cpu.dcache.WriteReq_miss_rate::total     0.034534                       # miss rate for WriteReq accesses
system.cpu.dcache.WriteReq_avg_miss_latency::.cpu.data 74838.594910                       # average WriteReq miss latency
system.cpu.dcache.WriteReq_avg_miss_latency::total 74838.594910                       # average WriteReq miss latency
system.cpu.dcache.WriteReq_mshr_hits::.cpu.data         2859                       # number of WriteReq MSHR hits
system.cpu.dcache.WriteReq_mshr_hits::total         2859                       # number of WriteReq MSHR hits
system.cpu.dcache.WriteReq_mshr_misses::.cpu.data         3310                       # number of WriteReq MSHR misses
system.cpu.dcache.WriteReq_mshr_misses::total         3310                       # number of WriteReq MSHR misses
system.cpu.dcache.WriteReq_mshr_miss_latency::.cpu.data    262834911                       # number of WriteReq MSHR miss cycles
system.cpu.dcache.WriteReq_mshr_miss_latency::total    262834911                       # number of WriteReq MSHR miss cycles
system.cpu.dcache.WriteReq_mshr_miss_rate::.cpu.data     0.018529                       # mshr miss rate for WriteReq accesses
system.cpu.dcache.WriteReq_mshr_miss_rate::total     0.018529                       # mshr miss rate for WriteReq accesses
system.cpu.dcache.WriteReq_avg_mshr_miss_latency::.cpu.data 79406.317523                       # average WriteReq mshr miss latency
system.cpu.dcache.WriteReq_avg_mshr_miss_latency::total 79406.317523                       # average WriteReq mshr miss latency
system.cpu.dcache.SoftPFReq_hits::.cpu.data          621                       # number of SoftPFReq hits
system.cpu.dcache.SoftPFReq_hits::total           621                       # number of SoftPFReq hits
system.cpu.dcache.SoftPFReq_misses::.cpu.data           79                       # number of SoftPFReq misses
system.cpu.dcache.SoftPFReq_misses::total           79                       # number of SoftPFReq misses
system.cpu.dcache.SoftPFReq_accesses::.cpu.data          700                       # number of SoftPFReq accesses(hits+misses)
system.cpu.dcache.SoftPFReq_accesses::total          700                       # number of SoftPFReq accesses(hits+misses)
system.cpu.dcache.SoftPFReq_miss_rate::.cpu.data     0.112857                       # miss rate for SoftPFReq accesses
system.cpu.dcache.SoftPFReq_miss_rate::total     0.112857                       # miss rate for SoftPFReq accesses
system.cpu.dcache.SoftPFReq_mshr_misses::.cpu.data            4                       # number of SoftPFReq MSHR misses
system.cpu.dcache.SoftPFReq_mshr_misses::total            4                       # number of SoftPFReq MSHR misses
system.cpu.dcache.SoftPFReq_mshr_miss_latency::.cpu.data       355000                       # number of SoftPFReq MSHR miss cycles
system.cpu.dcache.SoftPFReq_mshr_miss_latency::total       355000                       # number of SoftPFReq MSHR miss cycles
system.cpu.dcache.SoftPFReq_mshr_miss_rate::.cpu.data     0.005714                       # mshr miss rate for SoftPFReq accesses
system.cpu.dcache.SoftPFReq_mshr_miss_rate::total     0.005714                       # mshr miss rate for SoftPFReq accesses
system.cpu.dcache.SoftPFReq_avg_mshr_miss_latency::.cpu.data        88750                       # average SoftPFReq mshr miss latency
system.cpu.dcache.SoftPFReq_avg_mshr_miss_latency::total        88750                       # average SoftPFReq mshr miss latency
system.cpu.dcache.WriteLineReq_misses::.cpu.data           13                       # number of WriteLineReq misses
system.cpu.dcache.WriteLineReq_misses::total           13                       # number of WriteLineReq misses
system.cpu.dcache.WriteLineReq_miss_latency::.cpu.data       412995                       # number of WriteLineReq miss cycles
system.cpu.dcache.WriteLineReq_miss_latency::total       412995                       # number of WriteLineReq miss cycles
system.cpu.dcache.WriteLineReq_accesses::.cpu.data           13                       # number of WriteLineReq accesses(hits+misses)
system.cpu.dcache.WriteLineReq_accesses::total           13                       # number of WriteLineReq accesses(hits+misses)
system.cpu.dcache.WriteLineReq_miss_rate::.cpu.data            1                       # miss rate for WriteLineReq accesses
system.cpu.dcache.WriteLineReq_miss_rate::total            1                       # miss rate for WriteLineReq accesses
system.cpu.dcache.WriteLineReq_avg_miss_latency::.cpu.data 31768.846154                       # average WriteLineReq miss latency
system.cpu.dcache.WriteLineReq_avg_miss_latency::total 31768.846154                       # average WriteLineReq miss latency
system.cpu.dcache.WriteLineReq_mshr_misses::.cpu.data           13                       # number of WriteLineReq MSHR misses
system.cpu.dcache.WriteLineReq_mshr_misses::total           13                       # number of WriteLineReq MSHR misses
system.cpu.dcache.WriteLineReq_mshr_miss_latency::.cpu.data       399995                       # number of WriteLineReq MSHR miss cycles
system.cpu.dcache.WriteLineReq_mshr_miss_latency::total       399995                       # number of WriteLineReq MSHR miss cycles
system.cpu.dcache.WriteLineReq_mshr_miss_rate::.cpu.data            1                       # mshr miss rate for WriteLineReq accesses
system.cpu.dcache.WriteLineReq_mshr_miss_rate::total            1                       # mshr miss rate for WriteLineReq accesses
system.cpu.dcache.WriteLineReq_avg_mshr_miss_latency::.cpu.data 30768.846154                       # average WriteLineReq mshr miss latency
system.cpu.dcache.WriteLineReq_avg_mshr_miss_latency::total 30768.846154                       # average WriteLineReq mshr miss latency
system.cpu.dcache.LoadLockedReq_hits::.cpu.data         1240                       # number of LoadLockedReq hits
system.cpu.dcache.LoadLockedReq_hits::total         1240                       # number of LoadLockedReq hits
system.cpu.dcache.LoadLockedReq_misses::.cpu.data            2                       # number of LoadLockedReq misses
system.cpu.dcache.LoadLockedReq_misses::total            2                       # number of LoadLockedReq misses
system.cpu.dcache.LoadLockedReq_miss_latency::.cpu.data       158500                       # number of LoadLockedReq miss cycles
system.cpu.dcache.LoadLockedReq_miss_latency::total       158500                       # number of LoadLockedReq miss cycles
system.cpu.dcache.LoadLockedReq_accesses::.cpu.data         1242                       # number of LoadLockedReq accesses(hits+misses)
system.cpu.dcache.LoadLockedReq_accesses::total         1242                       # number of LoadLockedReq accesses(hits+misses)
system.cpu.dcache.LoadLockedReq_miss_rate::.cpu.data     0.001610                       # miss rate for LoadLockedReq accesses
system.cpu.dcache.LoadLockedReq_miss_rate::total     0.001610                       # miss rate for LoadLockedReq accesses
system.cpu.dcache.LoadLockedReq_avg_miss_latency::.cpu.data        79250                       # average LoadLockedReq miss latency
system.cpu.dcache.LoadLockedReq_avg_miss_latency::total        79250                       # average LoadLockedReq miss latency
system.cpu.dcache.LoadLockedReq_mshr_hits::.cpu.data            1                       # number of LoadLockedReq MSHR hits
system.cpu.dcache.LoadLockedReq_mshr_hits::total            1                       # number of LoadLockedReq MSHR hits
system.cpu.dcache.LoadLockedReq_mshr_misses::.cpu.data            1                       # number of LoadLockedReq MSHR misses
system.cpu.dcache.LoadLockedReq_mshr_misses::total            1                       # number of LoadLockedReq MSHR misses
system.cpu.dcache.LoadLockedReq_mshr_miss_latency::.cpu.data        85000                       # number of LoadLockedReq MSHR miss cycles
system.cpu.dcache.LoadLockedReq_mshr_miss_latency::total        85000                       # number of LoadLockedReq MSHR miss cycles
system.cpu.dcache.LoadLockedReq_mshr_miss_rate::.cpu.data     0.000805                       # mshr miss rate for LoadLockedReq accesses
system.cpu.dcache.LoadLockedReq_mshr_miss_rate::total     0.000805                       # mshr miss rate for LoadLockedReq accesses
system.cpu.dcache.LoadLockedReq_avg_mshr_miss_latency::.cpu.data        85000                       # average LoadLockedReq mshr miss latency
system.cpu.dcache.LoadLockedReq_avg_mshr_miss_latency::total        85000                       # average LoadLockedReq mshr miss latency
system.cpu.dcache.StoreCondReq_hits::.cpu.data         1232                       # number of StoreCondReq hits
system.cpu.dcache.StoreCondReq_hits::total         1232                       # number of StoreCondReq hits
system.cpu.dcache.StoreCondReq_accesses::.cpu.data         1232                       # number of StoreCondReq accesses(hits+misses)
system.cpu.dcache.StoreCondReq_accesses::total         1232                       # number of StoreCondReq accesses(hits+misses)
system.cpu.dcache.power_state.pwrStateResidencyTicks::UNDEFINED    367698000                       # Cumulative time (in ticks) in various power states
system.cpu.dcache.tags.tagsinuse           853.713717                       # Cycle average of tags in use
system.cpu.dcache.tags.total_refs              338938                       # Total number of references to valid blocks.
system.cpu.dcache.tags.sampled_refs              4106                       # Sample count of references to valid blocks.
system.cpu.dcache.tags.avg_refs             82.547004                       # Average number of references to valid blocks.
system.cpu.dcache.tags.warmup_cycle            176500                       # Cycle when the warmup percentage was hit.
system.cpu.dcache.tags.occ_blocks::.cpu.data   853.713717                       # Average occupied blocks per requestor
system.cpu.dcache.tags.occ_percent::.cpu.data     0.833705                       # Average percentage of cache occupancy
system.cpu.dcache.tags.occ_percent::total     0.833705                       # Average percentage of cache occupancy
system.cpu.dcache.tags.occ_task_id_blocks::1024         1024                       # Occupied blocks per task id
system.cpu.dcache.tags.age_task_id_blocks_1024::0          110                       # Occupied blocks per task id
system.cpu.dcache.tags.age_task_id_blocks_1024::1          874                       # Occupied blocks per task id
system.cpu.dcache.tags.age_task_id_blocks_1024::2           40                       # Occupied blocks per task id
system.cpu.dcache.tags.occ_task_id_percent::1024            1                       # Percentage of cache occupancy per task id
system.cpu.dcache.tags.tag_accesses            691148                       # Number of tag accesses
system.cpu.dcache.tags.data_accesses           691148                       # Number of data accesses
system.cpu.dcache.tags.power_state.pwrStateResidencyTicks::UNDEFINED    367698000                       # Cumulative time (in ticks) in various power states
system.cpu.power_state.pwrStateResidencyTicks::ON    367698000                       # Cumulative time (in ticks) in various power states

---------- End Simulation Statistics   ----------
