
---------- Begin Simulation Statistics ----------
final_tick                                19831472000                       # Number of ticks from beginning of simulation (restored from checkpoints and never reset)
host_inst_rate                                  70770                       # Simulator instruction rate (inst/s)
host_mem_usage                                 867752                       # Number of bytes of host memory used
host_op_rate                                    70819                       # Simulator op (including micro ops) rate (op/s)
host_seconds                                   141.30                       # Real time elapsed on the host
host_tick_rate                              140346280                       # Simulator tick rate (ticks/s)
sim_freq                                 1000000000000                       # Frequency of simulated ticks
sim_insts                                    10000003                       # Number of instructions simulated
sim_ops                                      10007008                       # Number of ops (including micro ops) simulated
sim_seconds                                  0.019831                       # Number of seconds simulated
sim_ticks                                 19831472000                       # Number of ticks simulated
system.cpu.branchPred.BTBCorrect                    0                       # Number of correct BTB predictions (this stat may not work properly.
system.cpu.branchPred.BTBHitPct             99.982088                       # BTB Hit Percentage
system.cpu.branchPred.BTBHits                 4102677                       # Number of BTB hits
system.cpu.branchPred.BTBLookups              4103412                       # Number of BTB lookups
system.cpu.branchPred.RASInCorrect                  0                       # Number of incorrect RAS predictions.
system.cpu.branchPred.condIncorrect               911                       # Number of conditional branches incorrect
system.cpu.branchPred.condPredicted           4104569                       # Number of conditional branches predicted
system.cpu.branchPred.indirectHits                  3                       # Number of indirect target hits.
system.cpu.branchPred.indirectLookups             173                       # Number of indirect predictor lookups.
system.cpu.branchPred.indirectMisses              170                       # Number of indirect misses.
system.cpu.branchPred.lookups                 4110246                       # Number of BP lookups
system.cpu.branchPred.usedRAS                    2356                       # Number of times the RAS was used to get a target.
system.cpu.branchPredindirectMispredicted           45                       # Number of mispredicted indirect branches.
system.cpu.cc_regfile_reads                  10994088                       # number of cc regfile reads
system.cpu.cc_regfile_writes                 10994619                       # number of cc regfile writes
system.cpu.commit.amos                              0                       # Number of atomic instructions committed
system.cpu.commit.branchMispredicts               712                       # The number of times a branch was mispredicted
system.cpu.commit.branches                    2384681                       # Number of branches committed
system.cpu.commit.bw_lim_events                 48867                       # number cycles where commit BW limit reached
system.cpu.commit.commitNonSpecStalls              31                       # The number of times commit has been forced to stall to communicate backwards
system.cpu.commit.commitSquashedInsts         4702344                       # The number of squashed insts skipped by commit
system.cpu.commit.committedInsts             10000033                       # Number of instructions committed
system.cpu.commit.committedOps               10007038                       # Number of ops (including micro ops) committed
system.cpu.commit.committed_per_cycle::samples     39040412                       # Number of insts commited each cycle
system.cpu.commit.committed_per_cycle::mean     0.256325                       # Number of insts commited each cycle
system.cpu.commit.committed_per_cycle::stdev     0.916700                       # Number of insts commited each cycle
system.cpu.commit.committed_per_cycle::underflows            0      0.00%      0.00% # Number of insts commited each cycle
system.cpu.commit.committed_per_cycle::0     35526590     91.00%     91.00% # Number of insts commited each cycle
system.cpu.commit.committed_per_cycle::1      1070564      2.74%     93.74% # Number of insts commited each cycle
system.cpu.commit.committed_per_cycle::2        12675      0.03%     93.77% # Number of insts commited each cycle
system.cpu.commit.committed_per_cycle::3      1033761      2.65%     96.42% # Number of insts commited each cycle
system.cpu.commit.committed_per_cycle::4      1324110      3.39%     99.81% # Number of insts commited each cycle
system.cpu.commit.committed_per_cycle::5        21669      0.06%     99.87% # Number of insts commited each cycle
system.cpu.commit.committed_per_cycle::6         1112      0.00%     99.87% # Number of insts commited each cycle
system.cpu.commit.committed_per_cycle::7         1064      0.00%     99.87% # Number of insts commited each cycle
system.cpu.commit.committed_per_cycle::8        48867      0.13%    100.00% # Number of insts commited each cycle
system.cpu.commit.committed_per_cycle::overflows            0      0.00%    100.00% # Number of insts commited each cycle
system.cpu.commit.committed_per_cycle::min_value            0                       # Number of insts commited each cycle
system.cpu.commit.committed_per_cycle::max_value            8                       # Number of insts commited each cycle
system.cpu.commit.committed_per_cycle::total     39040412                       # Number of insts commited each cycle
system.cpu.commit.fp_insts                          0                       # Number of committed floating point instructions.
system.cpu.commit.function_calls                 2159                       # Number of function calls committed.
system.cpu.commit.int_insts                   7629238                       # Number of committed integer instructions.
system.cpu.commit.loads                        161706                       # Number of loads committed
system.cpu.commit.membars                          20                       # Number of memory barriers committed
system.cpu.commit.op_class_0::No_OpClass            5      0.00%      0.00% # Class of committed instruction
system.cpu.commit.op_class_0::IntAlu          7375693     73.71%     73.71% # Class of committed instruction
system.cpu.commit.op_class_0::IntMult             634      0.01%     73.71% # Class of committed instruction
system.cpu.commit.op_class_0::IntDiv                2      0.00%     73.71% # Class of committed instruction
system.cpu.commit.op_class_0::FloatAdd              0      0.00%     73.71% # Class of committed instruction
system.cpu.commit.op_class_0::FloatCmp              0      0.00%     73.71% # Class of committed instruction
system.cpu.commit.op_class_0::FloatCvt              0      0.00%     73.71% # Class of committed instruction
system.cpu.commit.op_class_0::FloatMult             0      0.00%     73.71% # Class of committed instruction
system.cpu.commit.op_class_0::FloatMultAcc            0      0.00%     73.71% # Class of committed instruction
system.cpu.commit.op_class_0::FloatDiv              0      0.00%     73.71% # Class of committed instruction
system.cpu.commit.op_class_0::FloatMisc             1      0.00%     73.71% # Class of committed instruction
system.cpu.commit.op_class_0::FloatSqrt             0      0.00%     73.71% # Class of committed instruction
system.cpu.commit.op_class_0::SimdAdd              20      0.00%     73.71% # Class of committed instruction
system.cpu.commit.op_class_0::SimdAddAcc            0      0.00%     73.71% # Class of committed instruction
system.cpu.commit.op_class_0::SimdAlu              19      0.00%     73.71% # Class of committed instruction
system.cpu.commit.op_class_0::SimdCmp              20      0.00%     73.71% # Class of committed instruction
system.cpu.commit.op_class_0::SimdCvt               0      0.00%     73.71% # Class of committed instruction
system.cpu.commit.op_class_0::SimdMisc             25      0.00%     73.71% # Class of committed instruction
system.cpu.commit.op_class_0::SimdMult              0      0.00%     73.71% # Class of committed instruction
system.cpu.commit.op_class_0::SimdMultAcc            0      0.00%     73.71% # Class of committed instruction
system.cpu.commit.op_class_0::SimdShift             0      0.00%     73.71% # Class of committed instruction
system.cpu.commit.op_class_0::SimdShiftAcc            0      0.00%     73.71% # Class of committed instruction
system.cpu.commit.op_class_0::SimdDiv               0      0.00%     73.71% # Class of committed instruction
system.cpu.commit.op_class_0::SimdSqrt              0      0.00%     73.71% # Class of committed instruction
system.cpu.commit.op_class_0::SimdFloatAdd            0      0.00%     73.71% # Class of committed instruction
system.cpu.commit.op_class_0::SimdFloatAlu            0      0.00%     73.71% # Class of committed instruction
system.cpu.commit.op_class_0::SimdFloatCmp            0      0.00%     73.71% # Class of committed instruction
system.cpu.commit.op_class_0::SimdFloatCvt            0      0.00%     73.71% # Class of committed instruction
system.cpu.commit.op_class_0::SimdFloatDiv            0      0.00%     73.71% # Class of committed instruction
system.cpu.commit.op_class_0::SimdFloatMisc            0      0.00%     73.71% # Class of committed instruction
system.cpu.commit.op_class_0::SimdFloatMult            0      0.00%     73.71% # Class of committed instruction
system.cpu.commit.op_class_0::SimdFloatMultAcc            0      0.00%     73.71% # Class of committed instruction
system.cpu.commit.op_class_0::SimdFloatSqrt            0      0.00%     73.71% # Class of committed instruction
system.cpu.commit.op_class_0::SimdReduceAdd            0      0.00%     73.71% # Class of committed instruction
system.cpu.commit.op_class_0::SimdReduceAlu            0      0.00%     73.71% # Class of committed instruction
system.cpu.commit.op_class_0::SimdReduceCmp            0      0.00%     73.71% # Class of committed instruction
system.cpu.commit.op_class_0::SimdFloatReduceAdd            0      0.00%     73.71% # Class of committed instruction
system.cpu.commit.op_class_0::SimdFloatReduceCmp            0      0.00%     73.71% # Class of committed instruction
system.cpu.commit.op_class_0::SimdAes               0      0.00%     73.71% # Class of committed instruction
system.cpu.commit.op_class_0::SimdAesMix            0      0.00%     73.71% # Class of committed instruction
system.cpu.commit.op_class_0::SimdSha1Hash            0      0.00%     73.71% # Class of committed instruction
system.cpu.commit.op_class_0::SimdSha1Hash2            0      0.00%     73.71% # Class of committed instruction
system.cpu.commit.op_class_0::SimdSha256Hash            0      0.00%     73.71% # Class of committed instruction
system.cpu.commit.op_class_0::SimdSha256Hash2            0      0.00%     73.71% # Class of committed instruction
system.cpu.commit.op_class_0::SimdShaSigma2            0      0.00%     73.71% # Class of committed instruction
system.cpu.commit.op_class_0::SimdShaSigma3            0      0.00%     73.71% # Class of committed instruction
system.cpu.commit.op_class_0::SimdPredAlu            0      0.00%     73.71% # Class of committed instruction
system.cpu.commit.op_class_0::MemRead          161706      1.62%     75.33% # Class of committed instruction
system.cpu.commit.op_class_0::MemWrite        2468913     24.67%    100.00% # Class of committed instruction
system.cpu.commit.op_class_0::FloatMemRead            0      0.00%    100.00% # Class of committed instruction
system.cpu.commit.op_class_0::FloatMemWrite            0      0.00%    100.00% # Class of committed instruction
system.cpu.commit.op_class_0::IprAccess             0      0.00%    100.00% # Class of committed instruction
system.cpu.commit.op_class_0::InstPrefetch            0      0.00%    100.00% # Class of committed instruction
system.cpu.commit.op_class_0::total          10007038                       # Class of committed instruction
system.cpu.commit.refs                        2630619                       # Number of memory references committed
system.cpu.commit.swp_count                         0                       # Number of s/w prefetches committed
system.cpu.commit.vec_insts                       405                       # Number of committed Vector instructions.
system.cpu.committedInsts                    10000003                       # Number of Instructions Simulated
system.cpu.committedOps                      10007008                       # Number of Ops (including micro ops) Simulated
system.cpu.cpi                               3.966293                       # CPI: Cycles Per Instruction
system.cpu.cpi_total                         3.966293                       # CPI: Total CPI of All Threads
system.cpu.decode.BlockedCycles              36742224                       # Number of cycles decode is blocked
system.cpu.decode.BranchMispred                   205                       # Number of times decode detected a branch misprediction
system.cpu.decode.BranchResolved              3736144                       # Number of times decode resolved a branch
system.cpu.decode.DecodedInsts               15447680                       # Number of instructions handled by decode
system.cpu.decode.IdleCycles                   538972                       # Number of cycles decode is idle
system.cpu.decode.RunCycles                   1056799                       # Number of cycles decode is running
system.cpu.decode.SquashCycles                  37393                       # Number of cycles decode is squashing
system.cpu.decode.SquashedInsts                   736                       # Number of squashed instructions handled by decode
system.cpu.decode.UnblockCycles               1253228                       # Number of cycles decode is unblocking
system.cpu.dtb.accesses                             0                       # DTB accesses
system.cpu.dtb.align_faults                         0                       # Number of TLB faults due to alignment restrictions
system.cpu.dtb.domain_faults                        0                       # Number of TLB faults due to domain restrictions
system.cpu.dtb.flush_entries                        0                       # Number of entries that have been flushed from TLB
system.cpu.dtb.flush_tlb                            0                       # Number of times complete TLB was flushed
system.cpu.dtb.flush_tlb_asid                       0                       # Number of times TLB was flushed by ASID
system.cpu.dtb.flush_tlb_mva                        0                       # Number of times TLB was flushed by MVA
system.cpu.dtb.flush_tlb_mva_asid                   0                       # Number of times TLB was flushed by MVA & ASID
system.cpu.dtb.hits                                 0                       # DTB hits
system.cpu.dtb.inst_accesses                        0                       # ITB inst accesses
system.cpu.dtb.inst_hits                            0                       # ITB inst hits
system.cpu.dtb.inst_misses                          0                       # ITB inst misses
system.cpu.dtb.misses                               0                       # DTB misses
system.cpu.dtb.perms_faults                         0                       # Number of TLB faults due to permissions restrictions
system.cpu.dtb.prefetch_faults                      0                       # Number of TLB faults due to prefetch
system.cpu.dtb.read_accesses                        0                       # DTB read accesses
system.cpu.dtb.read_hits                            0                       # DTB read hits
system.cpu.dtb.read_misses                          0                       # DTB read misses
system.cpu.dtb.stage2_mmu.stage2_tlb.accesses            0                       # DTB accesses
system.cpu.dtb.stage2_mmu.stage2_tlb.align_faults            0                       # Number of TLB faults due to alignment restrictions
system.cpu.dtb.stage2_mmu.stage2_tlb.domain_faults            0                       # Number of TLB faults due to domain restrictions
system.cpu.dtb.stage2_mmu.stage2_tlb.flush_entries            0                       # Number of entries that have been flushed from TLB
system.cpu.dtb.stage2_mmu.stage2_tlb.flush_tlb            0                       # Number of times complete TLB was flushed
system.cpu.dtb.stage2_mmu.stage2_tlb.flush_tlb_asid            0                       # Number of times TLB was flushed by ASID
system.cpu.dtb.stage2_mmu.stage2_tlb.flush_tlb_mva            0                       # Number of times TLB was flushed by MVA
system.cpu.dtb.stage2_mmu.stage2_tlb.flush_tlb_mva_asid            0                       # Number of times TLB was flushed by MVA & ASID
system.cpu.dtb.stage2_mmu.stage2_tlb.hits            0                       # DTB hits
system.cpu.dtb.stage2_mmu.stage2_tlb.inst_accesses            0                       # ITB inst accesses
system.cpu.dtb.stage2_mmu.stage2_tlb.inst_hits            0                       # ITB inst hits
system.cpu.dtb.stage2_mmu.stage2_tlb.inst_misses            0                       # ITB inst misses
system.cpu.dtb.stage2_mmu.stage2_tlb.misses            0                       # DTB misses
system.cpu.dtb.stage2_mmu.stage2_tlb.perms_faults            0                       # Number of TLB faults due to permissions restrictions
system.cpu.dtb.stage2_mmu.stage2_tlb.prefetch_faults            0                       # Number of TLB faults due to prefetch
system.cpu.dtb.stage2_mmu.stage2_tlb.read_accesses            0                       # DTB read accesses
system.cpu.dtb.stage2_mmu.stage2_tlb.read_hits            0                       # DTB read hits
system.cpu.dtb.stage2_mmu.stage2_tlb.read_misses            0                       # DTB read misses
system.cpu.dtb.stage2_mmu.stage2_tlb.walker.walkRequestOrigin_Requested::Data            0                       # Table walker requests started/completed, data/inst
system.cpu.dtb.stage2_mmu.stage2_tlb.walker.walkRequestOrigin_Requested::Inst            0                       # Table walker requests started/completed, data/inst
system.cpu.dtb.stage2_mmu.stage2_tlb.walker.walkRequestOrigin_Requested::total            0                       # Table walker requests started/completed, data/inst
system.cpu.dtb.stage2_mmu.stage2_tlb.walker.walkRequestOrigin_Completed::Data            0                       # Table walker requests started/completed, data/inst
system.cpu.dtb.stage2_mmu.stage2_tlb.walker.walkRequestOrigin_Completed::Inst            0                       # Table walker requests started/completed, data/inst
system.cpu.dtb.stage2_mmu.stage2_tlb.walker.walkRequestOrigin_Completed::total            0                       # Table walker requests started/completed, data/inst
system.cpu.dtb.stage2_mmu.stage2_tlb.walker.walkRequestOrigin::total            0                       # Table walker requests started/completed, data/inst
system.cpu.dtb.stage2_mmu.stage2_tlb.walker.walks            0                       # Table walker walks requested
system.cpu.dtb.stage2_mmu.stage2_tlb.write_accesses            0                       # DTB write accesses
system.cpu.dtb.stage2_mmu.stage2_tlb.write_hits            0                       # DTB write hits
system.cpu.dtb.stage2_mmu.stage2_tlb.write_misses            0                       # DTB write misses
system.cpu.dtb.walker.walkRequestOrigin_Requested::Data            0                       # Table walker requests started/completed, data/inst
system.cpu.dtb.walker.walkRequestOrigin_Requested::Inst            0                       # Table walker requests started/completed, data/inst
system.cpu.dtb.walker.walkRequestOrigin_Requested::total            0                       # Table walker requests started/completed, data/inst
system.cpu.dtb.walker.walkRequestOrigin_Completed::Data            0                       # Table walker requests started/completed, data/inst
system.cpu.dtb.walker.walkRequestOrigin_Completed::Inst            0                       # Table walker requests started/completed, data/inst
system.cpu.dtb.walker.walkRequestOrigin_Completed::total            0                       # Table walker requests started/completed, data/inst
system.cpu.dtb.walker.walkRequestOrigin::total            0                       # Table walker requests started/completed, data/inst
system.cpu.dtb.walker.walks                         0                       # Table walker walks requested
system.cpu.dtb.write_accesses                       0                       # DTB write accesses
system.cpu.dtb.write_hits                           0                       # DTB write hits
system.cpu.dtb.write_misses                         0                       # DTB write misses
system.cpu.fetch.Branches                     4110246                       # Number of branches that fetch encountered
system.cpu.fetch.CacheLines                     65459                       # Number of cache lines fetched
system.cpu.fetch.Cycles                      39514065                       # Number of cycles fetch has run and was not squashing or blocked
system.cpu.fetch.IcacheSquashes                   452                       # Number of outstanding Icache misses that were squashed
system.cpu.fetch.IcacheWaitRetryStallCycles           79                       # Number of stall cycles due to full MSHR
system.cpu.fetch.Insts                       16910590                       # Number of instructions fetch has processed
system.cpu.fetch.MiscStallCycles                    6                       # Number of cycles fetch has spent waiting on interrupts, or bad addresses, or out of MSHRs
system.cpu.fetch.SquashCycles                   75184                       # Number of cycles fetch has spent squashing
system.cpu.fetch.branchRate                  0.103629                       # Number of branch fetches per cycle
system.cpu.fetch.icacheStallCycles              76874                       # Number of cycles fetch is stalled on an Icache miss
system.cpu.fetch.predictedBranches            4105036                       # Number of branches that fetch has predicted taken
system.cpu.fetch.rate                        0.426357                       # Number of inst fetches per cycle
system.cpu.fetch.rateDist::samples           39628616                       # Number of instructions fetched each cycle (Total)
system.cpu.fetch.rateDist::mean              0.426951                       # Number of instructions fetched each cycle (Total)
system.cpu.fetch.rateDist::stdev             1.252011                       # Number of instructions fetched each cycle (Total)
system.cpu.fetch.rateDist::underflows               0      0.00%      0.00% # Number of instructions fetched each cycle (Total)
system.cpu.fetch.rateDist::0                 35440479     89.43%     89.43% # Number of instructions fetched each cycle (Total)
system.cpu.fetch.rateDist::1                     3049      0.01%     89.44% # Number of instructions fetched each cycle (Total)
system.cpu.fetch.rateDist::2                    25847      0.07%     89.50% # Number of instructions fetched each cycle (Total)
system.cpu.fetch.rateDist::3                     1113      0.00%     89.51% # Number of instructions fetched each cycle (Total)
system.cpu.fetch.rateDist::4                  4093194     10.33%     99.84% # Number of instructions fetched each cycle (Total)
system.cpu.fetch.rateDist::5                     4998      0.01%     99.85% # Number of instructions fetched each cycle (Total)
system.cpu.fetch.rateDist::6                     6325      0.02%     99.86% # Number of instructions fetched each cycle (Total)
system.cpu.fetch.rateDist::7                     3228      0.01%     99.87% # Number of instructions fetched each cycle (Total)
system.cpu.fetch.rateDist::8                    50383      0.13%    100.00% # Number of instructions fetched each cycle (Total)
system.cpu.fetch.rateDist::overflows                0      0.00%    100.00% # Number of instructions fetched each cycle (Total)
system.cpu.fetch.rateDist::min_value                0                       # Number of instructions fetched each cycle (Total)
system.cpu.fetch.rateDist::max_value                8                       # Number of instructions fetched each cycle (Total)
system.cpu.fetch.rateDist::total             39628616                       # Number of instructions fetched each cycle (Total)
system.cpu.icache.prefetcher.num_hwpf_issued         1216                       # number of hwpf issued
system.cpu.icache.prefetcher.pfBufferHit          223                       # number of redundant prefetches already in prefetch queue
system.cpu.icache.prefetcher.pfIdentified         1776                       # number of prefetch candidates identified
system.cpu.icache.prefetcher.pfInCache              0                       # number of redundant prefetches already in cache/mshr dropped
system.cpu.icache.prefetcher.pfRemovedFull          264                       # number of prefetches dropped due to prefetch queue size
system.cpu.icache.prefetcher.pfSpanPage         13096                       # number of prefetches that crossed the page
system.cpu.idleCycles                           34329                       # Total number of cycles that the CPU has spent unscheduled due to idling
system.cpu.iew.branchMispredicts                  785                       # Number of branch mispredicts detected at execute
system.cpu.iew.exec_branches                  3594987                       # Number of branches executed
system.cpu.iew.exec_nop                            51                       # number of nop insts executed
system.cpu.iew.exec_rate                     0.374468                       # Inst execution rate
system.cpu.iew.exec_refs                      3843379                       # number of memory reference insts executed
system.cpu.iew.exec_stores                    3678964                       # Number of stores executed
system.cpu.iew.exec_swp                             0                       # number of swp insts executed
system.cpu.iew.iewBlockCycles                  552357                       # Number of cycles IEW is blocking
system.cpu.iew.iewDispLoadInsts                163614                       # Number of dispatched load instructions
system.cpu.iew.iewDispNonSpecInsts                 42                       # Number of dispatched non-speculative instructions
system.cpu.iew.iewDispSquashedInsts               318                       # Number of squashed instructions skipped by dispatch
system.cpu.iew.iewDispStoreInsts              3679993                       # Number of dispatched store instructions
system.cpu.iew.iewDispatchedInsts            14856051                       # Number of instructions dispatched to IQ
system.cpu.iew.iewExecLoadInsts                164415                       # Number of load instructions executed
system.cpu.iew.iewExecSquashedInsts               808                       # Number of squashed instructions skipped in execute
system.cpu.iew.iewExecutedInsts              14852510                       # Number of executed instructions
system.cpu.iew.iewIQFullEvents                     19                       # Number of times the IQ has become full, causing a stall
system.cpu.iew.iewIdleCycles                        0                       # Number of cycles IEW is idle
system.cpu.iew.iewLSQFullEvents               1954905                       # Number of times the LSQ has become full, causing a stall
system.cpu.iew.iewSquashCycles                  37393                       # Number of cycles IEW is squashing
system.cpu.iew.iewUnblockCycles               1954935                       # Number of cycles IEW is unblocking
system.cpu.iew.lsq.thread0.blockedLoads             0                       # Number of blocked loads due to partial load-store forwarding
system.cpu.iew.lsq.thread0.cacheBlocked       1942552                       # Number of times an access to memory failed due to the cache being blocked
system.cpu.iew.lsq.thread0.forwLoads             3761                       # Number of loads that had data forwarded from stores
system.cpu.iew.lsq.thread0.ignoredResponses            4                       # Number of memory responses ignored because the instruction is squashed
system.cpu.iew.lsq.thread0.invAddrLoads             0                       # Number of loads ignored due to an invalid address
system.cpu.iew.lsq.thread0.invAddrSwpfs             0                       # Number of software prefetches ignored due to an invalid address
system.cpu.iew.lsq.thread0.memOrderViolation           13                       # Number of memory ordering violations
system.cpu.iew.lsq.thread0.rescheduledLoads           16                       # Number of loads that were rescheduled
system.cpu.iew.lsq.thread0.squashedLoads         1908                       # Number of loads squashed
system.cpu.iew.lsq.thread0.squashedStores      1211071                       # Number of stores squashed
system.cpu.iew.memOrderViolationEvents             13                       # Number of memory order violations
system.cpu.iew.predictedNotTakenIncorrect          483                       # Number of branches that were predicted not taken incorrectly
system.cpu.iew.predictedTakenIncorrect            302                       # Number of branches that were predicted taken incorrectly
system.cpu.iew.wb_consumers                  16127363                       # num instructions consuming a value
system.cpu.iew.wb_count                      13713672                       # cumulative count of insts written-back
system.cpu.iew.wb_fanout                     0.341654                       # average fanout of values written-back
system.cpu.iew.wb_producers                   5509982                       # num instructions producing a value
system.cpu.iew.wb_rate                       0.345755                       # insts written-back per cycle
system.cpu.iew.wb_sent                       14850321                       # cumulative count of insts sent to commit
system.cpu.int_regfile_reads                 11835225                       # number of integer regfile reads
system.cpu.int_regfile_writes                 7578641                       # number of integer regfile writes
system.cpu.ipc                               0.252125                       # IPC: Instructions Per Cycle
system.cpu.ipc_total                         0.252125                       # IPC: Total IPC of All Threads
system.cpu.iq.FU_type_0::No_OpClass                 7      0.00%      0.00% # Type of FU issued
system.cpu.iq.FU_type_0::IntAlu              11008812     74.12%     74.12% # Type of FU issued
system.cpu.iq.FU_type_0::IntMult                  636      0.00%     74.12% # Type of FU issued
system.cpu.iq.FU_type_0::IntDiv                     3      0.00%     74.12% # Type of FU issued
system.cpu.iq.FU_type_0::FloatAdd                   0      0.00%     74.12% # Type of FU issued
system.cpu.iq.FU_type_0::FloatCmp                   0      0.00%     74.12% # Type of FU issued
system.cpu.iq.FU_type_0::FloatCvt                   0      0.00%     74.12% # Type of FU issued
system.cpu.iq.FU_type_0::FloatMult                  0      0.00%     74.12% # Type of FU issued
system.cpu.iq.FU_type_0::FloatMultAcc               0      0.00%     74.12% # Type of FU issued
system.cpu.iq.FU_type_0::FloatDiv                   0      0.00%     74.12% # Type of FU issued
system.cpu.iq.FU_type_0::FloatMisc                  1      0.00%     74.12% # Type of FU issued
system.cpu.iq.FU_type_0::FloatSqrt                  0      0.00%     74.12% # Type of FU issued
system.cpu.iq.FU_type_0::SimdAdd                   27      0.00%     74.12% # Type of FU issued
system.cpu.iq.FU_type_0::SimdAddAcc                 0      0.00%     74.12% # Type of FU issued
system.cpu.iq.FU_type_0::SimdAlu                   28      0.00%     74.12% # Type of FU issued
system.cpu.iq.FU_type_0::SimdCmp                   28      0.00%     74.12% # Type of FU issued
system.cpu.iq.FU_type_0::SimdCvt                    0      0.00%     74.12% # Type of FU issued
system.cpu.iq.FU_type_0::SimdMisc                  27      0.00%     74.12% # Type of FU issued
system.cpu.iq.FU_type_0::SimdMult                   0      0.00%     74.12% # Type of FU issued
system.cpu.iq.FU_type_0::SimdMultAcc                0      0.00%     74.12% # Type of FU issued
system.cpu.iq.FU_type_0::SimdShift                  0      0.00%     74.12% # Type of FU issued
system.cpu.iq.FU_type_0::SimdShiftAcc               0      0.00%     74.12% # Type of FU issued
system.cpu.iq.FU_type_0::SimdDiv                    0      0.00%     74.12% # Type of FU issued
system.cpu.iq.FU_type_0::SimdSqrt                   0      0.00%     74.12% # Type of FU issued
system.cpu.iq.FU_type_0::SimdFloatAdd               0      0.00%     74.12% # Type of FU issued
system.cpu.iq.FU_type_0::SimdFloatAlu               0      0.00%     74.12% # Type of FU issued
system.cpu.iq.FU_type_0::SimdFloatCmp               0      0.00%     74.12% # Type of FU issued
system.cpu.iq.FU_type_0::SimdFloatCvt               0      0.00%     74.12% # Type of FU issued
system.cpu.iq.FU_type_0::SimdFloatDiv               0      0.00%     74.12% # Type of FU issued
system.cpu.iq.FU_type_0::SimdFloatMisc              0      0.00%     74.12% # Type of FU issued
system.cpu.iq.FU_type_0::SimdFloatMult              0      0.00%     74.12% # Type of FU issued
system.cpu.iq.FU_type_0::SimdFloatMultAcc            0      0.00%     74.12% # Type of FU issued
system.cpu.iq.FU_type_0::SimdFloatSqrt              0      0.00%     74.12% # Type of FU issued
system.cpu.iq.FU_type_0::SimdReduceAdd              0      0.00%     74.12% # Type of FU issued
system.cpu.iq.FU_type_0::SimdReduceAlu              0      0.00%     74.12% # Type of FU issued
system.cpu.iq.FU_type_0::SimdReduceCmp              0      0.00%     74.12% # Type of FU issued
system.cpu.iq.FU_type_0::SimdFloatReduceAdd            0      0.00%     74.12% # Type of FU issued
system.cpu.iq.FU_type_0::SimdFloatReduceCmp            0      0.00%     74.12% # Type of FU issued
system.cpu.iq.FU_type_0::SimdAes                    0      0.00%     74.12% # Type of FU issued
system.cpu.iq.FU_type_0::SimdAesMix                 0      0.00%     74.12% # Type of FU issued
system.cpu.iq.FU_type_0::SimdSha1Hash               0      0.00%     74.12% # Type of FU issued
system.cpu.iq.FU_type_0::SimdSha1Hash2              0      0.00%     74.12% # Type of FU issued
system.cpu.iq.FU_type_0::SimdSha256Hash             0      0.00%     74.12% # Type of FU issued
system.cpu.iq.FU_type_0::SimdSha256Hash2            0      0.00%     74.12% # Type of FU issued
system.cpu.iq.FU_type_0::SimdShaSigma2              0      0.00%     74.12% # Type of FU issued
system.cpu.iq.FU_type_0::SimdShaSigma3              0      0.00%     74.12% # Type of FU issued
system.cpu.iq.FU_type_0::SimdPredAlu                0      0.00%     74.12% # Type of FU issued
system.cpu.iq.FU_type_0::MemRead               164550      1.11%     75.23% # Type of FU issued
system.cpu.iq.FU_type_0::MemWrite             3679203     24.77%    100.00% # Type of FU issued
system.cpu.iq.FU_type_0::FloatMemRead               0      0.00%    100.00% # Type of FU issued
system.cpu.iq.FU_type_0::FloatMemWrite              0      0.00%    100.00% # Type of FU issued
system.cpu.iq.FU_type_0::IprAccess                  0      0.00%    100.00% # Type of FU issued
system.cpu.iq.FU_type_0::InstPrefetch               0      0.00%    100.00% # Type of FU issued
system.cpu.iq.FU_type_0::total               14853322                       # Type of FU issued
system.cpu.iq.fp_alu_accesses                       0                       # Number of floating point alu accesses
system.cpu.iq.fp_inst_queue_reads                   0                       # Number of floating instruction queue reads
system.cpu.iq.fp_inst_queue_wakeup_accesses            0                       # Number of floating instruction queue wakeup accesses
system.cpu.iq.fp_inst_queue_writes                  0                       # Number of floating instruction queue writes
system.cpu.iq.fu_busy_cnt                       23062                       # FU busy when requested
system.cpu.iq.fu_busy_rate                   0.001553                       # FU busy rate (busy events/executed inst)
system.cpu.iq.fu_full::No_OpClass                   0      0.00%      0.00% # attempts to use FU when none available
system.cpu.iq.fu_full::IntAlu                     494      2.14%      2.14% # attempts to use FU when none available
system.cpu.iq.fu_full::IntMult                      0      0.00%      2.14% # attempts to use FU when none available
system.cpu.iq.fu_full::IntDiv                       0      0.00%      2.14% # attempts to use FU when none available
system.cpu.iq.fu_full::FloatAdd                     0      0.00%      2.14% # attempts to use FU when none available
system.cpu.iq.fu_full::FloatCmp                     0      0.00%      2.14% # attempts to use FU when none available
system.cpu.iq.fu_full::FloatCvt                     0      0.00%      2.14% # attempts to use FU when none available
system.cpu.iq.fu_full::FloatMult                    0      0.00%      2.14% # attempts to use FU when none available
system.cpu.iq.fu_full::FloatMultAcc                 0      0.00%      2.14% # attempts to use FU when none available
system.cpu.iq.fu_full::FloatDiv                     0      0.00%      2.14% # attempts to use FU when none available
system.cpu.iq.fu_full::FloatMisc                    0      0.00%      2.14% # attempts to use FU when none available
system.cpu.iq.fu_full::FloatSqrt                    0      0.00%      2.14% # attempts to use FU when none available
system.cpu.iq.fu_full::SimdAdd                      0      0.00%      2.14% # attempts to use FU when none available
system.cpu.iq.fu_full::SimdAddAcc                   0      0.00%      2.14% # attempts to use FU when none available
system.cpu.iq.fu_full::SimdAlu                      2      0.01%      2.15% # attempts to use FU when none available
system.cpu.iq.fu_full::SimdCmp                      3      0.01%      2.16% # attempts to use FU when none available
system.cpu.iq.fu_full::SimdCvt                      0      0.00%      2.16% # attempts to use FU when none available
system.cpu.iq.fu_full::SimdMisc                     0      0.00%      2.16% # attempts to use FU when none available
system.cpu.iq.fu_full::SimdMult                     0      0.00%      2.16% # attempts to use FU when none available
system.cpu.iq.fu_full::SimdMultAcc                  0      0.00%      2.16% # attempts to use FU when none available
system.cpu.iq.fu_full::SimdShift                    0      0.00%      2.16% # attempts to use FU when none available
system.cpu.iq.fu_full::SimdShiftAcc                 0      0.00%      2.16% # attempts to use FU when none available
system.cpu.iq.fu_full::SimdDiv                      0      0.00%      2.16% # attempts to use FU when none available
system.cpu.iq.fu_full::SimdSqrt                     0      0.00%      2.16% # attempts to use FU when none available
system.cpu.iq.fu_full::SimdFloatAdd                 0      0.00%      2.16% # attempts to use FU when none available
system.cpu.iq.fu_full::SimdFloatAlu                 0      0.00%      2.16% # attempts to use FU when none available
system.cpu.iq.fu_full::SimdFloatCmp                 0      0.00%      2.16% # attempts to use FU when none available
system.cpu.iq.fu_full::SimdFloatCvt                 0      0.00%      2.16% # attempts to use FU when none available
system.cpu.iq.fu_full::SimdFloatDiv                 0      0.00%      2.16% # attempts to use FU when none available
system.cpu.iq.fu_full::SimdFloatMisc                0      0.00%      2.16% # attempts to use FU when none available
system.cpu.iq.fu_full::SimdFloatMult                0      0.00%      2.16% # attempts to use FU when none available
system.cpu.iq.fu_full::SimdFloatMultAcc             0      0.00%      2.16% # attempts to use FU when none available
system.cpu.iq.fu_full::SimdFloatSqrt                0      0.00%      2.16% # attempts to use FU when none available
system.cpu.iq.fu_full::SimdReduceAdd                0      0.00%      2.16% # attempts to use FU when none available
system.cpu.iq.fu_full::SimdReduceAlu                0      0.00%      2.16% # attempts to use FU when none available
system.cpu.iq.fu_full::SimdReduceCmp                0      0.00%      2.16% # attempts to use FU when none available
system.cpu.iq.fu_full::SimdFloatReduceAdd            0      0.00%      2.16% # attempts to use FU when none available
system.cpu.iq.fu_full::SimdFloatReduceCmp            0      0.00%      2.16% # attempts to use FU when none available
system.cpu.iq.fu_full::SimdAes                      0      0.00%      2.16% # attempts to use FU when none available
system.cpu.iq.fu_full::SimdAesMix                   0      0.00%      2.16% # attempts to use FU when none available
system.cpu.iq.fu_full::SimdSha1Hash                 0      0.00%      2.16% # attempts to use FU when none available
system.cpu.iq.fu_full::SimdSha1Hash2                0      0.00%      2.16% # attempts to use FU when none available
system.cpu.iq.fu_full::SimdSha256Hash               0      0.00%      2.16% # attempts to use FU when none available
system.cpu.iq.fu_full::SimdSha256Hash2              0      0.00%      2.16% # attempts to use FU when none available
system.cpu.iq.fu_full::SimdShaSigma2                0      0.00%      2.16% # attempts to use FU when none available
system.cpu.iq.fu_full::SimdShaSigma3                0      0.00%      2.16% # attempts to use FU when none available
system.cpu.iq.fu_full::SimdPredAlu                  0      0.00%      2.16% # attempts to use FU when none available
system.cpu.iq.fu_full::MemRead                  21794     94.50%     96.67% # attempts to use FU when none available
system.cpu.iq.fu_full::MemWrite                   769      3.33%    100.00% # attempts to use FU when none available
system.cpu.iq.fu_full::FloatMemRead                 0      0.00%    100.00% # attempts to use FU when none available
system.cpu.iq.fu_full::FloatMemWrite                0      0.00%    100.00% # attempts to use FU when none available
system.cpu.iq.fu_full::IprAccess                    0      0.00%    100.00% # attempts to use FU when none available
system.cpu.iq.fu_full::InstPrefetch                 0      0.00%    100.00% # attempts to use FU when none available
system.cpu.iq.int_alu_accesses               14875664                       # Number of integer alu accesses
system.cpu.iq.int_inst_queue_reads           69357030                       # Number of integer instruction queue reads
system.cpu.iq.int_inst_queue_wakeup_accesses     13713126                       # Number of integer instruction queue wakeup accesses
system.cpu.iq.int_inst_queue_writes          19703637                       # Number of integer instruction queue writes
system.cpu.iq.iqInstsAdded                   14855958                       # Number of instructions added to the IQ (excludes non-spec)
system.cpu.iq.iqInstsIssued                  14853322                       # Number of instructions issued
system.cpu.iq.iqNonSpecInstsAdded                  42                       # Number of non-speculative instructions added to the IQ
system.cpu.iq.iqSquashedInstsExamined         4848955                       # Number of squashed instructions iterated over during squash; mainly for profiling
system.cpu.iq.iqSquashedInstsIssued               184                       # Number of squashed instructions issued
system.cpu.iq.iqSquashedNonSpecRemoved             11                       # Number of squashed non-spec instructions that were removed
system.cpu.iq.iqSquashedOperandsExamined      5693846                       # Number of squashed operands that are examined and possibly removed from graph
system.cpu.iq.issued_per_cycle::samples      39628616                       # Number of insts issued each cycle
system.cpu.iq.issued_per_cycle::mean         0.374813                       # Number of insts issued each cycle
system.cpu.iq.issued_per_cycle::stdev        1.025677                       # Number of insts issued each cycle
system.cpu.iq.issued_per_cycle::underflows            0      0.00%      0.00% # Number of insts issued each cycle
system.cpu.iq.issued_per_cycle::0            33833318     85.38%     85.38% # Number of insts issued each cycle
system.cpu.iq.issued_per_cycle::1             2090427      5.28%     90.65% # Number of insts issued each cycle
system.cpu.iq.issued_per_cycle::2               32788      0.08%     90.73% # Number of insts issued each cycle
system.cpu.iq.issued_per_cycle::3             2069310      5.22%     95.96% # Number of insts issued each cycle
system.cpu.iq.issued_per_cycle::4             1551418      3.91%     99.87% # Number of insts issued each cycle
system.cpu.iq.issued_per_cycle::5               28072      0.07%     99.94% # Number of insts issued each cycle
system.cpu.iq.issued_per_cycle::6               20331      0.05%     99.99% # Number of insts issued each cycle
system.cpu.iq.issued_per_cycle::7                2245      0.01%    100.00% # Number of insts issued each cycle
system.cpu.iq.issued_per_cycle::8                 707      0.00%    100.00% # Number of insts issued each cycle
system.cpu.iq.issued_per_cycle::overflows            0      0.00%    100.00% # Number of insts issued each cycle
system.cpu.iq.issued_per_cycle::min_value            0                       # Number of insts issued each cycle
system.cpu.iq.issued_per_cycle::max_value            8                       # Number of insts issued each cycle
system.cpu.iq.issued_per_cycle::total        39628616                       # Number of insts issued each cycle
system.cpu.iq.rate                           0.374489                       # Inst issue rate
system.cpu.iq.vec_alu_accesses                    713                       # Number of vector alu accesses
system.cpu.iq.vec_inst_queue_reads               1472                       # Number of vector instruction queue reads
system.cpu.iq.vec_inst_queue_wakeup_accesses          546                       # Number of vector instruction queue wakeup accesses
system.cpu.iq.vec_inst_queue_writes              1331                       # Number of vector instruction queue writes
system.cpu.itb.accesses                             0                       # DTB accesses
system.cpu.itb.align_faults                         0                       # Number of TLB faults due to alignment restrictions
system.cpu.itb.domain_faults                        0                       # Number of TLB faults due to domain restrictions
system.cpu.itb.flush_entries                        0                       # Number of entries that have been flushed from TLB
system.cpu.itb.flush_tlb                            0                       # Number of times complete TLB was flushed
system.cpu.itb.flush_tlb_asid                       0                       # Number of times TLB was flushed by ASID
system.cpu.itb.flush_tlb_mva                        0                       # Number of times TLB was flushed by MVA
system.cpu.itb.flush_tlb_mva_asid                   0                       # Number of times TLB was flushed by MVA & ASID
system.cpu.itb.hits                                 0                       # DTB hits
system.cpu.itb.inst_accesses                        0                       # ITB inst accesses
system.cpu.itb.inst_hits                            0                       # ITB inst hits
system.cpu.itb.inst_misses                          0                       # ITB inst misses
system.cpu.itb.misses                               0                       # DTB misses
system.cpu.itb.perms_faults                         0                       # Number of TLB faults due to permissions restrictions
system.cpu.itb.prefetch_faults                      0                       # Number of TLB faults due to prefetch
system.cpu.itb.read_accesses                        0                       # DTB read accesses
system.cpu.itb.read_hits                            0                       # DTB read hits
system.cpu.itb.read_misses                          0                       # DTB read misses
system.cpu.itb.stage2_mmu.stage2_tlb.accesses            0                       # DTB accesses
system.cpu.itb.stage2_mmu.stage2_tlb.align_faults            0                       # Number of TLB faults due to alignment restrictions
system.cpu.itb.stage2_mmu.stage2_tlb.domain_faults            0                       # Number of TLB faults due to domain restrictions
system.cpu.itb.stage2_mmu.stage2_tlb.flush_entries            0                       # Number of entries that have been flushed from TLB
system.cpu.itb.stage2_mmu.stage2_tlb.flush_tlb            0                       # Number of times complete TLB was flushed
system.cpu.itb.stage2_mmu.stage2_tlb.flush_tlb_asid            0                       # Number of times TLB was flushed by ASID
system.cpu.itb.stage2_mmu.stage2_tlb.flush_tlb_mva            0                       # Number of times TLB was flushed by MVA
system.cpu.itb.stage2_mmu.stage2_tlb.flush_tlb_mva_asid            0                       # Number of times TLB was flushed by MVA & ASID
system.cpu.itb.stage2_mmu.stage2_tlb.hits            0                       # DTB hits
system.cpu.itb.stage2_mmu.stage2_tlb.inst_accesses            0                       # ITB inst accesses
system.cpu.itb.stage2_mmu.stage2_tlb.inst_hits            0                       # ITB inst hits
system.cpu.itb.stage2_mmu.stage2_tlb.inst_misses            0                       # ITB inst misses
system.cpu.itb.stage2_mmu.stage2_tlb.misses            0                       # DTB misses
system.cpu.itb.stage2_mmu.stage2_tlb.perms_faults            0                       # Number of TLB faults due to permissions restrictions
system.cpu.itb.stage2_mmu.stage2_tlb.prefetch_faults            0                       # Number of TLB faults due to prefetch
system.cpu.itb.stage2_mmu.stage2_tlb.read_accesses            0                       # DTB read accesses
system.cpu.itb.stage2_mmu.stage2_tlb.read_hits            0                       # DTB read hits
system.cpu.itb.stage2_mmu.stage2_tlb.read_misses            0                       # DTB read misses
system.cpu.itb.stage2_mmu.stage2_tlb.walker.walkRequestOrigin_Requested::Data            0                       # Table walker requests started/completed, data/inst
system.cpu.itb.stage2_mmu.stage2_tlb.walker.walkRequestOrigin_Requested::Inst            0                       # Table walker requests started/completed, data/inst
system.cpu.itb.stage2_mmu.stage2_tlb.walker.walkRequestOrigin_Requested::total            0                       # Table walker requests started/completed, data/inst
system.cpu.itb.stage2_mmu.stage2_tlb.walker.walkRequestOrigin_Completed::Data            0                       # Table walker requests started/completed, data/inst
system.cpu.itb.stage2_mmu.stage2_tlb.walker.walkRequestOrigin_Completed::Inst            0                       # Table walker requests started/completed, data/inst
system.cpu.itb.stage2_mmu.stage2_tlb.walker.walkRequestOrigin_Completed::total            0                       # Table walker requests started/completed, data/inst
system.cpu.itb.stage2_mmu.stage2_tlb.walker.walkRequestOrigin::total            0                       # Table walker requests started/completed, data/inst
system.cpu.itb.stage2_mmu.stage2_tlb.walker.walks            0                       # Table walker walks requested
system.cpu.itb.stage2_mmu.stage2_tlb.write_accesses            0                       # DTB write accesses
system.cpu.itb.stage2_mmu.stage2_tlb.write_hits            0                       # DTB write hits
system.cpu.itb.stage2_mmu.stage2_tlb.write_misses            0                       # DTB write misses
system.cpu.itb.walker.walkRequestOrigin_Requested::Data            0                       # Table walker requests started/completed, data/inst
system.cpu.itb.walker.walkRequestOrigin_Requested::Inst            0                       # Table walker requests started/completed, data/inst
system.cpu.itb.walker.walkRequestOrigin_Requested::total            0                       # Table walker requests started/completed, data/inst
system.cpu.itb.walker.walkRequestOrigin_Completed::Data            0                       # Table walker requests started/completed, data/inst
system.cpu.itb.walker.walkRequestOrigin_Completed::Inst            0                       # Table walker requests started/completed, data/inst
system.cpu.itb.walker.walkRequestOrigin_Completed::total            0                       # Table walker requests started/completed, data/inst
system.cpu.itb.walker.walkRequestOrigin::total            0                       # Table walker requests started/completed, data/inst
system.cpu.itb.walker.walks                         0                       # Table walker walks requested
system.cpu.itb.write_accesses                       0                       # DTB write accesses
system.cpu.itb.write_hits                           0                       # DTB write hits
system.cpu.itb.write_misses                         0                       # DTB write misses
system.cpu.memDep0.conflictingLoads              2490                       # Number of conflicting loads.
system.cpu.memDep0.conflictingStores             2612                       # Number of conflicting stores.
system.cpu.memDep0.insertedLoads               163614                       # Number of loads inserted to the mem dependence unit.
system.cpu.memDep0.insertedStores             3679993                       # Number of stores inserted to the mem dependence unit.
system.cpu.misc_regfile_reads                35980529                       # number of misc regfile reads
system.cpu.misc_regfile_writes                     81                       # number of misc regfile writes
system.cpu.numCycles                         39662945                       # number of cpu cycles simulated
system.cpu.numWorkItemsCompleted                    0                       # number of work items this cpu completed
system.cpu.numWorkItemsStarted                      0                       # number of work items this cpu started
system.cpu.rename.BlockCycles                 2507950                       # Number of cycles rename is blocking
system.cpu.rename.CommittedMaps              12520059                       # Number of HB maps that are committed
system.cpu.rename.IQFullEvents                   8663                       # Number of times rename has blocked due to IQ full
system.cpu.rename.IdleCycles                   982254                       # Number of cycles rename is idle
system.cpu.rename.LQFullEvents                    360                       # Number of times rename has blocked due to LQ full
system.cpu.rename.ROBFullEvents                     6                       # Number of times rename has blocked due to ROB full
system.cpu.rename.RenameLookups              37069895                       # Number of register rename lookups that rename has made
system.cpu.rename.RenamedInsts               14859886                       # Number of instructions processed by rename
system.cpu.rename.RenamedOperands            18583986                       # Number of destination operands rename has renamed
system.cpu.rename.RunCycles                   1830028                       # Number of cycles rename is running
system.cpu.rename.SQFullEvents               34218873                       # Number of times rename has blocked due to SQ full
system.cpu.rename.SquashCycles                  37393                       # Number of cycles rename is squashing
system.cpu.rename.UnblockCycles              34265759                       # Number of cycles rename is unblocking
system.cpu.rename.UndoneMaps                  6063862                       # Number of HB maps that are undone due to squashing
system.cpu.rename.int_rename_lookups         11846225                       # Number of integer rename lookups
system.cpu.rename.serializeStallCycles           5232                       # count of cycles rename stalled for serializing inst
system.cpu.rename.serializingInsts                105                       # count of serializing insts renamed
system.cpu.rename.skidInsts                   8536931                       # count of insts added to the skid buffer
system.cpu.rename.tempSerializingInsts             43                       # count of temporary serializing insts renamed
system.cpu.rename.vec_rename_lookups              961                       # Number of vector rename lookups
system.cpu.rob.rob_reads                     53224191                       # The number of ROB reads
system.cpu.rob.rob_writes                    30007019                       # The number of ROB writes
system.cpu.timesIdled                             411                       # Number of times that the entire CPU went into an idle state and unscheduled itself
system.cpu.vec_regfile_reads                      607                       # number of vector regfile reads
system.cpu.vec_regfile_writes                     128                       # number of vector regfile writes
system.cpu.workload.numSyscalls                    10                       # Number of system calls
system.membus.snoop_filter.hit_multi_requests            0                       # Number of requests hitting in the snoop filter with multiple (>1) holders of the requested data.
system.membus.snoop_filter.hit_multi_snoops            0                       # Number of snoops hitting in the snoop filter with multiple (>1) holders of the requested data.
system.membus.snoop_filter.hit_single_requests      2316177                       # Number of requests hitting in the snoop filter with a single holder of the requested data.
system.membus.snoop_filter.hit_single_snoops            0                       # Number of snoops hitting in the snoop filter with a single holder of the requested data.
system.membus.snoop_filter.tot_requests       4665382                       # Total number of requests made to the snoop filter.
system.membus.snoop_filter.tot_snoops               0                       # Total number of snoops made to the snoop filter.
system.tol2bus.snoop_filter.hit_multi_requests            1                       # Number of requests hitting in the snoop filter with multiple (>1) holders of the requested data.
system.tol2bus.snoop_filter.hit_multi_snoops            0                       # Number of snoops hitting in the snoop filter with multiple (>1) holders of the requested data.
system.tol2bus.snoop_filter.hit_single_requests      2348536                       # Number of requests hitting in the snoop filter with a single holder of the requested data.
system.tol2bus.snoop_filter.hit_single_snoops           68                       # Number of snoops hitting in the snoop filter with a single holder of the requested data.
system.tol2bus.snoop_filter.tot_requests      4698162                       # Total number of requests made to the snoop filter.
system.tol2bus.snoop_filter.tot_snoops             68                       # Total number of snoops made to the snoop filter.
system.membus.trans_dist::ReadResp                553                       # Transaction distribution
system.membus.trans_dist::WritebackDirty      2314876                       # Transaction distribution
system.membus.trans_dist::CleanEvict              470                       # Transaction distribution
system.membus.trans_dist::ReadExReq              2725                       # Transaction distribution
system.membus.trans_dist::ReadExResp             2725                       # Transaction distribution
system.membus.trans_dist::ReadSharedReq           553                       # Transaction distribution
system.membus.trans_dist::InvalidateReq       2345927                       # Transaction distribution
system.membus.pkt_count_system.l2.mem_side::system.mem_ctrls.port      4667829                       # Packet count per connected master and slave (bytes)
system.membus.pkt_count::total                4667829                       # Packet count per connected master and slave (bytes)
system.membus.pkt_size_system.l2.mem_side::system.mem_ctrls.port    148361856                       # Cumulative packet size per connected master and slave (bytes)
system.membus.pkt_size::total               148361856                       # Cumulative packet size per connected master and slave (bytes)
system.membus.snoops                                0                       # Total snoops (count)
system.membus.snoopTraffic                          0                       # Total snoop traffic (bytes)
system.membus.snoop_fanout::samples           2349205                       # Request fanout histogram
system.membus.snoop_fanout::mean                    0                       # Request fanout histogram
system.membus.snoop_fanout::stdev                   0                       # Request fanout histogram
system.membus.snoop_fanout::underflows              0      0.00%      0.00% # Request fanout histogram
system.membus.snoop_fanout::0                 2349205    100.00%    100.00% # Request fanout histogram
system.membus.snoop_fanout::1                       0      0.00%    100.00% # Request fanout histogram
system.membus.snoop_fanout::overflows               0      0.00%    100.00% # Request fanout histogram
system.membus.snoop_fanout::min_value               0                       # Request fanout histogram
system.membus.snoop_fanout::max_value               0                       # Request fanout histogram
system.membus.snoop_fanout::total             2349205                       # Request fanout histogram
system.membus.reqLayer0.occupancy         14216342750                       # Layer occupancy (ticks)
system.membus.reqLayer0.utilization              71.7                       # Layer utilization (%)
system.membus.respLayer1.occupancy           17442250                       # Layer occupancy (ticks)
system.membus.respLayer1.utilization              0.1                       # Layer utilization (%)
system.membus.power_state.pwrStateResidencyTicks::UNDEFINED  19831472000                       # Cumulative time (in ticks) in various power states
system.tol2bus.trans_dist::ReadResp               953                       # Transaction distribution
system.tol2bus.trans_dist::WritebackDirty      4662558                       # Transaction distribution
system.tol2bus.trans_dist::WritebackClean          742                       # Transaction distribution
system.tol2bus.trans_dist::CleanEvict             653                       # Transaction distribution
system.tol2bus.trans_dist::ReadExReq             2743                       # Transaction distribution
system.tol2bus.trans_dist::ReadExResp            2743                       # Transaction distribution
system.tol2bus.trans_dist::ReadCleanReq           806                       # Transaction distribution
system.tol2bus.trans_dist::ReadSharedReq          147                       # Transaction distribution
system.tol2bus.trans_dist::InvalidateReq      2345930                       # Transaction distribution
system.tol2bus.trans_dist::InvalidateResp      2345928                       # Transaction distribution
system.tol2bus.pkt_count_system.cpu.icache.mem_side::system.l2.cpu_side         2354                       # Packet count per connected master and slave (bytes)
system.tol2bus.pkt_count_system.cpu.dcache.mem_side::system.l2.cpu_side      7045432                       # Packet count per connected master and slave (bytes)
system.tol2bus.pkt_count::total               7047786                       # Packet count per connected master and slave (bytes)
system.tol2bus.pkt_size_system.cpu.icache.mem_side::system.l2.cpu_side        99072                       # Cumulative packet size per connected master and slave (bytes)
system.tol2bus.pkt_size_system.cpu.dcache.mem_side::system.l2.cpu_side    150436416                       # Cumulative packet size per connected master and slave (bytes)
system.tol2bus.pkt_size::total              150535488                       # Cumulative packet size per connected master and slave (bytes)
system.tol2bus.snoops                         2315417                       # Total snoops (count)
system.tol2bus.snoopTraffic                 148152256                       # Total snoop traffic (bytes)
system.tol2bus.snoop_fanout::samples          4665043                       # Request fanout histogram
system.tol2bus.snoop_fanout::mean            0.000015                       # Request fanout histogram
system.tol2bus.snoop_fanout::stdev           0.003846                       # Request fanout histogram
system.tol2bus.snoop_fanout::underflows             0      0.00%      0.00% # Request fanout histogram
system.tol2bus.snoop_fanout::0                4664974    100.00%    100.00% # Request fanout histogram
system.tol2bus.snoop_fanout::1                     69      0.00%    100.00% # Request fanout histogram
system.tol2bus.snoop_fanout::2                      0      0.00%    100.00% # Request fanout histogram
system.tol2bus.snoop_fanout::overflows              0      0.00%    100.00% # Request fanout histogram
system.tol2bus.snoop_fanout::min_value              0                       # Request fanout histogram
system.tol2bus.snoop_fanout::max_value              1                       # Request fanout histogram
system.tol2bus.snoop_fanout::total            4665043                       # Request fanout histogram
system.tol2bus.reqLayer0.occupancy         4697587680                       # Layer occupancy (ticks)
system.tol2bus.reqLayer0.utilization             23.7                       # Layer utilization (%)
system.tol2bus.respLayer1.occupancy        1177299000                       # Layer occupancy (ticks)
system.tol2bus.respLayer1.utilization             5.9                       # Layer utilization (%)
system.tol2bus.respLayer0.occupancy           1209000                       # Layer occupancy (ticks)
system.tol2bus.respLayer0.utilization             0.0                       # Layer utilization (%)
system.tol2bus.power_state.pwrStateResidencyTicks::UNDEFINED  19831472000                       # Cumulative time (in ticks) in various power states
system.voltage_domain.voltage                       1                       # Voltage in Volts
system.clk_domain.clock                          1000                       # Clock period in ticks
system.l2.demand_hits::.cpu.inst                  140                       # number of demand (read+write) hits
system.l2.demand_hits::.cpu.data                   34                       # number of demand (read+write) hits
system.l2.demand_hits::.cpu.icache.prefetcher          244                       # number of demand (read+write) hits
system.l2.demand_hits::total                      418                       # number of demand (read+write) hits
system.l2.overall_hits::.cpu.inst                 140                       # number of overall hits
system.l2.overall_hits::.cpu.data                  34                       # number of overall hits
system.l2.overall_hits::.cpu.icache.prefetcher          244                       # number of overall hits
system.l2.overall_hits::total                     418                       # number of overall hits
system.l2.demand_misses::.cpu.inst                422                       # number of demand (read+write) misses
system.l2.demand_misses::.cpu.data               2856                       # number of demand (read+write) misses
system.l2.demand_misses::total                   3278                       # number of demand (read+write) misses
system.l2.overall_misses::.cpu.inst               422                       # number of overall misses
system.l2.overall_misses::.cpu.data              2856                       # number of overall misses
system.l2.overall_misses::total                  3278                       # number of overall misses
system.l2.demand_miss_latency::.cpu.inst     33657500                       # number of demand (read+write) miss cycles
system.l2.demand_miss_latency::.cpu.data    228245500                       # number of demand (read+write) miss cycles
system.l2.demand_miss_latency::total        261903000                       # number of demand (read+write) miss cycles
system.l2.overall_miss_latency::.cpu.inst     33657500                       # number of overall miss cycles
system.l2.overall_miss_latency::.cpu.data    228245500                       # number of overall miss cycles
system.l2.overall_miss_latency::total       261903000                       # number of overall miss cycles
system.l2.demand_accesses::.cpu.inst              562                       # number of demand (read+write) accesses
system.l2.demand_accesses::.cpu.data             2890                       # number of demand (read+write) accesses
system.l2.demand_accesses::.cpu.icache.prefetcher          244                       # number of demand (read+write) accesses
system.l2.demand_accesses::total                 3696                       # number of demand (read+write) accesses
system.l2.overall_accesses::.cpu.inst             562                       # number of overall (read+write) accesses
system.l2.overall_accesses::.cpu.data            2890                       # number of overall (read+write) accesses
system.l2.overall_accesses::.cpu.icache.prefetcher          244                       # number of overall (read+write) accesses
system.l2.overall_accesses::total                3696                       # number of overall (read+write) accesses
system.l2.demand_miss_rate::.cpu.inst        0.750890                       # miss rate for demand accesses
system.l2.demand_miss_rate::.cpu.data        0.988235                       # miss rate for demand accesses
system.l2.demand_miss_rate::total            0.886905                       # miss rate for demand accesses
system.l2.overall_miss_rate::.cpu.inst       0.750890                       # miss rate for overall accesses
system.l2.overall_miss_rate::.cpu.data       0.988235                       # miss rate for overall accesses
system.l2.overall_miss_rate::total           0.886905                       # miss rate for overall accesses
system.l2.demand_avg_miss_latency::.cpu.inst 79757.109005                       # average overall miss latency
system.l2.demand_avg_miss_latency::.cpu.data 79917.892157                       # average overall miss latency
system.l2.demand_avg_miss_latency::total 79897.193411                       # average overall miss latency
system.l2.overall_avg_miss_latency::.cpu.inst 79757.109005                       # average overall miss latency
system.l2.overall_avg_miss_latency::.cpu.data 79917.892157                       # average overall miss latency
system.l2.overall_avg_miss_latency::total 79897.193411                       # average overall miss latency
system.l2.blocked_cycles::no_mshrs                  0                       # number of cycles access was blocked
system.l2.blocked_cycles::no_targets                0                       # number of cycles access was blocked
system.l2.blocked::no_mshrs                         0                       # number of cycles access was blocked
system.l2.blocked::no_targets                       0                       # number of cycles access was blocked
system.l2.avg_blocked_cycles::no_mshrs            nan                       # average number of cycles each access was blocked
system.l2.avg_blocked_cycles::no_targets          nan                       # average number of cycles each access was blocked
system.l2.writebacks::.writebacks             2314879                       # number of writebacks
system.l2.writebacks::total                   2314879                       # number of writebacks
system.l2.demand_mshr_misses::.cpu.inst           422                       # number of demand (read+write) MSHR misses
system.l2.demand_mshr_misses::.cpu.data          2856                       # number of demand (read+write) MSHR misses
system.l2.demand_mshr_misses::total              3278                       # number of demand (read+write) MSHR misses
system.l2.overall_mshr_misses::.cpu.inst          422                       # number of overall MSHR misses
system.l2.overall_mshr_misses::.cpu.data         2856                       # number of overall MSHR misses
system.l2.overall_mshr_misses::total             3278                       # number of overall MSHR misses
system.l2.demand_mshr_miss_latency::.cpu.inst     29437500                       # number of demand (read+write) MSHR miss cycles
system.l2.demand_mshr_miss_latency::.cpu.data    199685500                       # number of demand (read+write) MSHR miss cycles
system.l2.demand_mshr_miss_latency::total    229123000                       # number of demand (read+write) MSHR miss cycles
system.l2.overall_mshr_miss_latency::.cpu.inst     29437500                       # number of overall MSHR miss cycles
system.l2.overall_mshr_miss_latency::.cpu.data    199685500                       # number of overall MSHR miss cycles
system.l2.overall_mshr_miss_latency::total    229123000                       # number of overall MSHR miss cycles
system.l2.demand_mshr_miss_rate::.cpu.inst     0.750890                       # mshr miss rate for demand accesses
system.l2.demand_mshr_miss_rate::.cpu.data     0.988235                       # mshr miss rate for demand accesses
system.l2.demand_mshr_miss_rate::total       0.886905                       # mshr miss rate for demand accesses
system.l2.overall_mshr_miss_rate::.cpu.inst     0.750890                       # mshr miss rate for overall accesses
system.l2.overall_mshr_miss_rate::.cpu.data     0.988235                       # mshr miss rate for overall accesses
system.l2.overall_mshr_miss_rate::total      0.886905                       # mshr miss rate for overall accesses
system.l2.demand_avg_mshr_miss_latency::.cpu.inst 69757.109005                       # average overall mshr miss latency
system.l2.demand_avg_mshr_miss_latency::.cpu.data 69917.892157                       # average overall mshr miss latency
system.l2.demand_avg_mshr_miss_latency::total 69897.193411                       # average overall mshr miss latency
system.l2.overall_avg_mshr_miss_latency::.cpu.inst 69757.109005                       # average overall mshr miss latency
system.l2.overall_avg_mshr_miss_latency::.cpu.data 69917.892157                       # average overall mshr miss latency
system.l2.overall_avg_mshr_miss_latency::total 69897.193411                       # average overall mshr miss latency
system.l2.replacements                        2315417                       # number of replacements
system.l2.WritebackDirty_hits::.writebacks      2347679                       # number of WritebackDirty hits
system.l2.WritebackDirty_hits::total          2347679                       # number of WritebackDirty hits
system.l2.WritebackDirty_accesses::.writebacks      2347679                       # number of WritebackDirty accesses(hits+misses)
system.l2.WritebackDirty_accesses::total      2347679                       # number of WritebackDirty accesses(hits+misses)
system.l2.WritebackClean_hits::.writebacks          742                       # number of WritebackClean hits
system.l2.WritebackClean_hits::total              742                       # number of WritebackClean hits
system.l2.WritebackClean_accesses::.writebacks          742                       # number of WritebackClean accesses(hits+misses)
system.l2.WritebackClean_accesses::total          742                       # number of WritebackClean accesses(hits+misses)
system.l2.ReadExReq_hits::.cpu.data                18                       # number of ReadExReq hits
system.l2.ReadExReq_hits::total                    18                       # number of ReadExReq hits
system.l2.ReadExReq_misses::.cpu.data            2725                       # number of ReadExReq misses
system.l2.ReadExReq_misses::total                2725                       # number of ReadExReq misses
system.l2.ReadExReq_miss_latency::.cpu.data    216712500                       # number of ReadExReq miss cycles
system.l2.ReadExReq_miss_latency::total     216712500                       # number of ReadExReq miss cycles
system.l2.ReadExReq_accesses::.cpu.data          2743                       # number of ReadExReq accesses(hits+misses)
system.l2.ReadExReq_accesses::total              2743                       # number of ReadExReq accesses(hits+misses)
system.l2.ReadExReq_miss_rate::.cpu.data     0.993438                       # miss rate for ReadExReq accesses
system.l2.ReadExReq_miss_rate::total         0.993438                       # miss rate for ReadExReq accesses
system.l2.ReadExReq_avg_miss_latency::.cpu.data 79527.522936                       # average ReadExReq miss latency
system.l2.ReadExReq_avg_miss_latency::total 79527.522936                       # average ReadExReq miss latency
system.l2.ReadExReq_mshr_misses::.cpu.data         2725                       # number of ReadExReq MSHR misses
system.l2.ReadExReq_mshr_misses::total           2725                       # number of ReadExReq MSHR misses
system.l2.ReadExReq_mshr_miss_latency::.cpu.data    189462500                       # number of ReadExReq MSHR miss cycles
system.l2.ReadExReq_mshr_miss_latency::total    189462500                       # number of ReadExReq MSHR miss cycles
system.l2.ReadExReq_mshr_miss_rate::.cpu.data     0.993438                       # mshr miss rate for ReadExReq accesses
system.l2.ReadExReq_mshr_miss_rate::total     0.993438                       # mshr miss rate for ReadExReq accesses
system.l2.ReadExReq_avg_mshr_miss_latency::.cpu.data 69527.522936                       # average ReadExReq mshr miss latency
system.l2.ReadExReq_avg_mshr_miss_latency::total 69527.522936                       # average ReadExReq mshr miss latency
system.l2.ReadCleanReq_hits::.cpu.inst            140                       # number of ReadCleanReq hits
system.l2.ReadCleanReq_hits::.cpu.icache.prefetcher          244                       # number of ReadCleanReq hits
system.l2.ReadCleanReq_hits::total                384                       # number of ReadCleanReq hits
system.l2.ReadCleanReq_misses::.cpu.inst          422                       # number of ReadCleanReq misses
system.l2.ReadCleanReq_misses::total              422                       # number of ReadCleanReq misses
system.l2.ReadCleanReq_miss_latency::.cpu.inst     33657500                       # number of ReadCleanReq miss cycles
[...]
system.cpu.dcache.overall_misses::.cpu.data      2368378                       # number of overall misses
system.cpu.dcache.overall_misses::total       2368378                       # number of overall misses
system.cpu.dcache.demand_miss_latency::.cpu.data  78974474485                       # number of demand (read+write) miss cycles
system.cpu.dcache.demand_miss_latency::total  78974474485                       # number of demand (read+write) miss cycles
system.cpu.dcache.overall_miss_latency::.cpu.data  78974474485                       # number of overall miss cycles
system.cpu.dcache.overall_miss_latency::total  78974474485                       # number of overall miss cycles
system.cpu.dcache.demand_accesses::.cpu.data      2627911                       # number of demand (read+write) accesses
system.cpu.dcache.demand_accesses::total      2627911                       # number of demand (read+write) accesses
system.cpu.dcache.overall_accesses::.cpu.data      2627919                       # number of overall (read+write) accesses
system.cpu.dcache.overall_accesses::total      2627919                       # number of overall (read+write) accesses
system.cpu.dcache.demand_miss_rate::.cpu.data     0.901239                       # miss rate for demand accesses
system.cpu.dcache.demand_miss_rate::total     0.901239                       # miss rate for demand accesses
system.cpu.dcache.overall_miss_rate::.cpu.data     0.901237                       # miss rate for overall accesses
system.cpu.dcache.overall_miss_rate::total     0.901237                       # miss rate for overall accesses
system.cpu.dcache.demand_avg_miss_latency::.cpu.data 33345.426499                       # average overall miss latency
system.cpu.dcache.demand_avg_miss_latency::total 33345.426499                       # average overall miss latency
system.cpu.dcache.overall_avg_miss_latency::.cpu.data 33345.384261                       # average overall miss latency
system.cpu.dcache.overall_avg_miss_latency::total 33345.384261                       # average overall miss latency
system.cpu.dcache.blocked_cycles::no_mshrs     35551505                       # number of cycles access was blocked
system.cpu.dcache.blocked_cycles::no_targets            0                       # number of cycles access was blocked
system.cpu.dcache.blocked::no_mshrs           2236401                       # number of cycles access was blocked
system.cpu.dcache.blocked::no_targets               0                       # number of cycles access was blocked
system.cpu.dcache.avg_blocked_cycles::no_mshrs    15.896749                       # average number of cycles each access was blocked
system.cpu.dcache.avg_blocked_cycles::no_targets          nan                       # average number of cycles each access was blocked
system.cpu.dcache.writebacks::.writebacks      2347679                       # number of writebacks
system.cpu.dcache.writebacks::total           2347679                       # number of writebacks
system.cpu.dcache.demand_mshr_hits::.cpu.data        19557                       # number of demand (read+write) MSHR hits
system.cpu.dcache.demand_mshr_hits::total        19557                       # number of demand (read+write) MSHR hits
system.cpu.dcache.overall_mshr_hits::.cpu.data        19557                       # number of overall MSHR hits
system.cpu.dcache.overall_mshr_hits::total        19557                       # number of overall MSHR hits
system.cpu.dcache.demand_mshr_misses::.cpu.data      2348818                       # number of demand (read+write) MSHR misses
system.cpu.dcache.demand_mshr_misses::total      2348818                       # number of demand (read+write) MSHR misses
system.cpu.dcache.overall_mshr_misses::.cpu.data      2348821                       # number of overall MSHR misses
system.cpu.dcache.overall_mshr_misses::total      2348821                       # number of overall MSHR misses
system.cpu.dcache.demand_mshr_miss_latency::.cpu.data  75461914362                       # number of demand (read+write) MSHR miss cycles
system.cpu.dcache.demand_mshr_miss_latency::total  75461914362                       # number of demand (read+write) MSHR miss cycles
system.cpu.dcache.overall_mshr_miss_latency::.cpu.data  75462176862                       # number of overall MSHR miss cycles
system.cpu.dcache.overall_mshr_miss_latency::total  75462176862                       # number of overall MSHR miss cycles
system.cpu.dcache.demand_mshr_miss_rate::.cpu.data     0.893797                       # mshr miss rate for demand accesses
system.cpu.dcache.demand_mshr_miss_rate::total     0.893797                       # mshr miss rate for demand accesses
system.cpu.dcache.overall_mshr_miss_rate::.cpu.data     0.893795                       # mshr miss rate for overall accesses
system.cpu.dcache.overall_mshr_miss_rate::total     0.893795                       # mshr miss rate for overall accesses
system.cpu.dcache.demand_avg_mshr_miss_latency::.cpu.data 32127.612425                       # average overall mshr miss latency
system.cpu.dcache.demand_avg_mshr_miss_latency::total 32127.612425                       # average overall mshr miss latency
system.cpu.dcache.overall_avg_mshr_miss_latency::.cpu.data 32127.683149                       # average overall mshr miss latency
system.cpu.dcache.overall_avg_mshr_miss_latency::total 32127.683149                       # average overall mshr miss latency
system.cpu.dcache.replacements                2347794                       # number of replacements
system.cpu.dcache.ReadReq_hits::.cpu.data       158622                       # number of ReadReq hits
system.cpu.dcache.ReadReq_hits::total          158622                       # number of ReadReq hits
system.cpu.dcache.ReadReq_misses::.cpu.data          398                       # number of ReadReq misses
system.cpu.dcache.ReadReq_misses::total           398                       # number of ReadReq misses
system.cpu.dcache.ReadReq_miss_latency::.cpu.data     27756500                       # number of ReadReq miss cycles
system.cpu.dcache.ReadReq_miss_latency::total     27756500                       # number of ReadReq miss cycles
system.cpu.dcache.ReadReq_accesses::.cpu.data       159020                       # number of ReadReq accesses(hits+misses)
system.cpu.dcache.ReadReq_accesses::total       159020                       # number of ReadReq accesses(hits+misses)
system.cpu.dcache.ReadReq_miss_rate::.cpu.data     0.002503                       # miss rate for ReadReq accesses
system.cpu.dcache.ReadReq_miss_rate::total     0.002503                       # miss rate for ReadReq accesses
system.cpu.dcache.ReadReq_avg_miss_latency::.cpu.data 69739.949749                       # average ReadReq miss latency
system.cpu.dcache.ReadReq_avg_miss_latency::total 69739.949749                       # average ReadReq miss latency
system.cpu.dcache.ReadReq_mshr_hits::.cpu.data          255                       # number of ReadReq MSHR hits
system.cpu.dcache.ReadReq_mshr_hits::total          255                       # number of ReadReq MSHR hits
system.cpu.dcache.ReadReq_mshr_misses::.cpu.data          143                       # number of ReadReq MSHR misses
system.cpu.dcache.ReadReq_mshr_misses::total          143                       # number of ReadReq MSHR misses
system.cpu.dcache.ReadReq_mshr_miss_latency::.cpu.data     11598000                       # number of ReadReq MSHR miss cycles
system.cpu.dcache.ReadReq_mshr_miss_latency::total     11598000                       # number of ReadReq MSHR miss cycles
system.cpu.dcache.ReadReq_mshr_miss_rate::.cpu.data     0.000899                       # mshr miss rate for ReadReq accesses
system.cpu.dcache.ReadReq_mshr_miss_rate::total     0.000899                       # mshr miss rate for ReadReq accesses
system.cpu.dcache.ReadReq_avg_mshr_miss_latency::.cpu.data 81104.895105                       # average ReadReq mshr miss latency
system.cpu.dcache.ReadReq_avg_mshr_miss_latency::total 81104.895105                       # average ReadReq mshr miss latency
system.cpu.dcache.WriteReq_hits::.cpu.data       100914                       # number of WriteReq hits
system.cpu.dcache.WriteReq_hits::total         100914                       # number of WriteReq hits
system.cpu.dcache.WriteReq_misses::.cpu.data        22050                       # number of WriteReq misses
system.cpu.dcache.WriteReq_misses::total        22050                       # number of WriteReq misses
system.cpu.dcache.WriteReq_miss_latency::.cpu.data   1372016107                       # number of WriteReq miss cycles
system.cpu.dcache.WriteReq_miss_latency::total   1372016107                       # number of WriteReq miss cycles
system.cpu.dcache.WriteReq_accesses::.cpu.data       122964                       # number of WriteReq accesses(hits+misses)
system.cpu.dcache.WriteReq_accesses::total       122964                       # number of WriteReq accesses(hits+misses)
system.cpu.dcache.WriteReq_miss_rate::.cpu.data     0.179321                       # miss rate for WriteReq accesses
system.cpu.dcache.WriteReq_miss_rate::total     0.179321                       # miss rate for WriteReq accesses
system.cpu.dcache.WriteReq_avg_miss_latency::.cpu.data 62222.952698                       # average WriteReq miss latency
system.cpu.dcache.WriteReq_avg_miss_latency::total 62222.952698                       # average WriteReq miss latency
system.cpu.dcache.WriteReq_mshr_hits::.cpu.data        19302                       # number of WriteReq MSHR hits
system.cpu.dcache.WriteReq_mshr_hits::total        19302                       # number of WriteReq MSHR hits
system.cpu.dcache.WriteReq_mshr_misses::.cpu.data         2748                       # number of WriteReq MSHR misses
system.cpu.dcache.WriteReq_mshr_misses::total         2748                       # number of WriteReq MSHR misses
system.cpu.dcache.WriteReq_mshr_miss_latency::.cpu.data    221537484                       # number of WriteReq MSHR miss cycles
system.cpu.dcache.WriteReq_mshr_miss_latency::total    221537484                       # number of WriteReq MSHR miss cycles
system.cpu.dcache.WriteReq_mshr_miss_rate::.cpu.data     0.022348                       # mshr miss rate for WriteReq accesses
system.cpu.dcache.WriteReq_mshr_miss_rate::total     0.022348                       # mshr miss rate for WriteReq accesses
system.cpu.dcache.WriteReq_avg_mshr_miss_latency::.cpu.data 80617.716157                       # average WriteReq mshr miss latency
system.cpu.dcache.WriteReq_avg_mshr_miss_latency::total 80617.716157                       # average WriteReq mshr miss latency
system.cpu.dcache.SoftPFReq_hits::.cpu.data            5                       # number of SoftPFReq hits
system.cpu.dcache.SoftPFReq_hits::total             5                       # number of SoftPFReq hits
system.cpu.dcache.SoftPFReq_misses::.cpu.data            3                       # number of SoftPFReq misses
system.cpu.dcache.SoftPFReq_misses::total            3                       # number of SoftPFReq misses
system.cpu.dcache.SoftPFReq_accesses::.cpu.data            8                       # number of SoftPFReq accesses(hits+misses)
system.cpu.dcache.SoftPFReq_accesses::total            8                       # number of SoftPFReq accesses(hits+misses)
system.cpu.dcache.SoftPFReq_miss_rate::.cpu.data     0.375000                       # miss rate for SoftPFReq accesses
system.cpu.dcache.SoftPFReq_miss_rate::total     0.375000                       # miss rate for SoftPFReq accesses
system.cpu.dcache.SoftPFReq_mshr_misses::.cpu.data            3                       # number of SoftPFReq MSHR misses
system.cpu.dcache.SoftPFReq_mshr_misses::total            3                       # number of SoftPFReq MSHR misses
system.cpu.dcache.SoftPFReq_mshr_miss_latency::.cpu.data       262500                       # number of SoftPFReq MSHR miss cycles
system.cpu.dcache.SoftPFReq_mshr_miss_latency::total       262500                       # number of SoftPFReq MSHR miss cycles
system.cpu.dcache.SoftPFReq_mshr_miss_rate::.cpu.data     0.375000                       # mshr miss rate for SoftPFReq accesses
system.cpu.dcache.SoftPFReq_mshr_miss_rate::total     0.375000                       # mshr miss rate for SoftPFReq accesses
system.cpu.dcache.SoftPFReq_avg_mshr_miss_latency::.cpu.data        87500                       # average SoftPFReq mshr miss latency
system.cpu.dcache.SoftPFReq_avg_mshr_miss_latency::total        87500                       # average SoftPFReq mshr miss latency
system.cpu.dcache.WriteLineReq_misses::.cpu.data      2345927                       # number of WriteLineReq misses
system.cpu.dcache.WriteLineReq_misses::total      2345927                       # number of WriteLineReq misses
system.cpu.dcache.WriteLineReq_miss_latency::.cpu.data  77574701878                       # number of WriteLineReq miss cycles
system.cpu.dcache.WriteLineReq_miss_latency::total  77574701878                       # number of WriteLineReq miss cycles
system.cpu.dcache.WriteLineReq_accesses::.cpu.data      2345927                       # number of WriteLineReq accesses(hits+misses)
system.cpu.dcache.WriteLineReq_accesses::total      2345927                       # number of WriteLineReq accesses(hits+misses)
system.cpu.dcache.WriteLineReq_miss_rate::.cpu.data            1                       # miss rate for WriteLineReq accesses
system.cpu.dcache.WriteLineReq_miss_rate::total            1                       # miss rate for WriteLineReq accesses
system.cpu.dcache.WriteLineReq_avg_miss_latency::.cpu.data 33067.824309                       # average WriteLineReq miss latency
system.cpu.dcache.WriteLineReq_avg_miss_latency::total 33067.824309                       # average WriteLineReq miss latency
system.cpu.dcache.WriteLineReq_mshr_misses::.cpu.data      2345927                       # number of WriteLineReq MSHR misses
system.cpu.dcache.WriteLineReq_mshr_misses::total      2345927                       # number of WriteLineReq MSHR misses
system.cpu.dcache.WriteLineReq_mshr_miss_latency::.cpu.data  75228778878                       # number of WriteLineReq MSHR miss cycles
system.cpu.dcache.WriteLineReq_mshr_miss_latency::total  75228778878                       # number of WriteLineReq MSHR miss cycles
system.cpu.dcache.WriteLineReq_mshr_miss_rate::.cpu.data            1                       # mshr miss rate for WriteLineReq accesses
system.cpu.dcache.WriteLineReq_mshr_miss_rate::total            1                       # mshr miss rate for WriteLineReq accesses
system.cpu.dcache.WriteLineReq_avg_mshr_miss_latency::.cpu.data 32067.826014                       # average WriteLineReq mshr miss latency
system.cpu.dcache.WriteLineReq_avg_mshr_miss_latency::total 32067.826014                       # average WriteLineReq mshr miss latency
system.cpu.dcache.LoadLockedReq_hits::.cpu.data           23                       # number of LoadLockedReq hits
system.cpu.dcache.LoadLockedReq_hits::total           23                       # number of LoadLockedReq hits
system.cpu.dcache.LoadLockedReq_misses::.cpu.data            1                       # number of LoadLockedReq misses
system.cpu.dcache.LoadLockedReq_misses::total            1                       # number of LoadLockedReq misses
system.cpu.dcache.LoadLockedReq_miss_latency::.cpu.data        86500                       # number of LoadLockedReq miss cycles
system.cpu.dcache.LoadLockedReq_miss_latency::total        86500                       # number of LoadLockedReq miss cycles
system.cpu.dcache.LoadLockedReq_accesses::.cpu.data           24                       # number of LoadLockedReq accesses(hits+misses)
system.cpu.dcache.LoadLockedReq_accesses::total           24                       # number of LoadLockedReq accesses(hits+misses)
system.cpu.dcache.LoadLockedReq_miss_rate::.cpu.data     0.041667                       # miss rate for LoadLockedReq accesses
system.cpu.dcache.LoadLockedReq_miss_rate::total     0.041667                       # miss rate for LoadLockedReq accesses
system.cpu.dcache.LoadLockedReq_avg_miss_latency::.cpu.data        86500                       # average LoadLockedReq miss latency
system.cpu.dcache.LoadLockedReq_avg_miss_latency::total        86500                       # average LoadLockedReq miss latency
system.cpu.dcache.LoadLockedReq_mshr_misses::.cpu.data            1                       # number of LoadLockedReq MSHR misses
system.cpu.dcache.LoadLockedReq_mshr_misses::total            1                       # number of LoadLockedReq MSHR misses
system.cpu.dcache.LoadLockedReq_mshr_miss_latency::.cpu.data        85500                       # number of LoadLockedReq MSHR miss cycles
system.cpu.dcache.LoadLockedReq_mshr_miss_latency::total        85500                       # number of LoadLockedReq MSHR miss cycles
system.cpu.dcache.LoadLockedReq_mshr_miss_rate::.cpu.data     0.041667                       # mshr miss rate for LoadLockedReq accesses
system.cpu.dcache.LoadLockedReq_mshr_miss_rate::total     0.041667                       # mshr miss rate for LoadLockedReq accesses
system.cpu.dcache.LoadLockedReq_avg_mshr_miss_latency::.cpu.data        85500                       # average LoadLockedReq mshr miss latency
system.cpu.dcache.LoadLockedReq_avg_mshr_miss_latency::total        85500                       # average LoadLockedReq mshr miss latency
system.cpu.dcache.StoreCondReq_hits::.cpu.data           20                       # number of StoreCondReq hits
system.cpu.dcache.StoreCondReq_hits::total           20                       # number of StoreCondReq hits
system.cpu.dcache.StoreCondReq_accesses::.cpu.data           20                       # number of StoreCondReq accesses(hits+misses)
system.cpu.dcache.StoreCondReq_accesses::total           20                       # number of StoreCondReq accesses(hits+misses)
system.cpu.dcache.power_state.pwrStateResidencyTicks::UNDEFINED  19831472000                       # Cumulative time (in ticks) in various power states
system.cpu.dcache.tags.tagsinuse          1022.155403                       # Cycle average of tags in use
system.cpu.dcache.tags.total_refs             2608402                       # Total number of references to valid blocks.
system.cpu.dcache.tags.sampled_refs           2348818                       # Sample count of references to valid blocks.
system.cpu.dcache.tags.avg_refs              1.110517                       # Average number of references to valid blocks.
system.cpu.dcache.tags.warmup_cycle            268500                       # Cycle when the warmup percentage was hit.
system.cpu.dcache.tags.occ_blocks::.cpu.data  1022.155403                       # Average occupied blocks per requestor
system.cpu.dcache.tags.occ_percent::.cpu.data     0.998199                       # Average percentage of cache occupancy
system.cpu.dcache.tags.occ_percent::total     0.998199                       # Average percentage of cache occupancy
system.cpu.dcache.tags.occ_task_id_blocks::1024         1024                       # Occupied blocks per task id
system.cpu.dcache.tags.age_task_id_blocks_1024::0         1024                       # Occupied blocks per task id
system.cpu.dcache.tags.occ_task_id_percent::1024            1                       # Percentage of cache occupancy per task id
system.cpu.dcache.tags.tag_accesses           7604744                       # Number of tag accesses
system.cpu.dcache.tags.data_accesses          7604744                       # Number of data accesses
system.cpu.dcache.tags.power_state.pwrStateResidencyTicks::UNDEFINED  19831472000                       # Cumulative time (in ticks) in various power states
system.cpu.power_state.pwrStateResidencyTicks::ON  19831472000                       # Cumulative time (in ticks) in various power states

---------- End Simulation Statistics   ----------
