
---------- Begin Simulation Statistics ----------
final_tick                                11326915000                       # Number of ticks from beginning of simulation (restored from checkpoints and never reset)
host_inst_rate                                 165082                       # Simulator instruction rate (inst/s)
host_mem_usage                                 863296                       # Number of bytes of host memory used
host_op_rate                                   187182                       # Simulator op (including micro ops) rate (op/s)
host_seconds                                    60.58                       # Real time elapsed on the host
host_tick_rate                              186986087                       # Simulator tick rate (ticks/s)
sim_freq                                 1000000000000                       # Frequency of simulated ticks
sim_insts                                    10000000                       # Number of instructions simulated
sim_ops                                      11338771                       # Number of ops (including micro ops) simulated
sim_seconds                                  0.011327                       # Number of seconds simulated
sim_ticks                                 11326915000                       # Number of ticks simulated
system.cpu.branchPred.BTBCorrect                    0                       # Number of correct BTB predictions (this stat may not work properly.
system.cpu.branchPred.BTBHitPct             99.897289                       # BTB Hit Percentage
system.cpu.branchPred.BTBHits                  915221                       # Number of BTB hits
system.cpu.branchPred.BTBLookups               916162                       # Number of BTB lookups
system.cpu.branchPred.RASInCorrect                  1                       # Number of incorrect RAS predictions.
system.cpu.branchPred.condIncorrect               943                       # Number of conditional branches incorrect
system.cpu.branchPred.condPredicted           1791596                       # Number of conditional branches predicted
system.cpu.branchPred.indirectHits              30251                       # Number of indirect target hits.
system.cpu.branchPred.indirectLookups           30505                       # Number of indirect predictor lookups.
system.cpu.branchPred.indirectMisses              254                       # Number of indirect misses.
system.cpu.branchPred.lookups                 2229698                       # Number of BP lookups
system.cpu.branchPred.usedRAS                  109269                       # Number of times the RAS was used to get a target.
system.cpu.branchPredindirectMispredicted           76                       # Number of mispredicted indirect branches.
system.cpu.cc_regfile_reads                   4683450                       # number of cc regfile reads
system.cpu.cc_regfile_writes                  4440321                       # number of cc regfile writes
system.cpu.commit.amos                              0                       # Number of atomic instructions committed
system.cpu.commit.branchMispredicts               689                       # The number of times a branch was mispredicted
system.cpu.commit.branches                    2221351                       # Number of branches committed
system.cpu.commit.bw_lim_events                323857                       # number cycles where commit BW limit reached
system.cpu.commit.commitNonSpecStalls           12142                       # The number of times commit has been forced to stall to communicate backwards
system.cpu.commit.commitSquashedInsts           37497                       # The number of squashed insts skipped by commit
system.cpu.commit.committedInsts             10006066                       # Number of instructions committed
system.cpu.commit.committedOps               11344837                       # Number of ops (including micro ops) committed
system.cpu.commit.committed_per_cycle::samples     20400244                       # Number of insts commited each cycle
system.cpu.commit.committed_per_cycle::mean     0.556113                       # Number of insts commited each cycle
system.cpu.commit.committed_per_cycle::stdev     1.463319                       # Number of insts commited each cycle
system.cpu.commit.committed_per_cycle::underflows            0      0.00%      0.00% # Number of insts commited each cycle
system.cpu.commit.committed_per_cycle::0     16068000     78.76%     78.76% # Number of insts commited each cycle
system.cpu.commit.committed_per_cycle::1      1978349      9.70%     88.46% # Number of insts commited each cycle
system.cpu.commit.committed_per_cycle::2       826499      4.05%     92.51% # Number of insts commited each cycle
system.cpu.commit.committed_per_cycle::3       482869      2.37%     94.88% # Number of insts commited each cycle
system.cpu.commit.committed_per_cycle::4       306699      1.50%     96.38% # Number of insts commited each cycle
system.cpu.commit.committed_per_cycle::5       150349      0.74%     97.12% # Number of insts commited each cycle
system.cpu.commit.committed_per_cycle::6       149868      0.73%     97.85% # Number of insts commited each cycle
system.cpu.commit.committed_per_cycle::7       113754      0.56%     98.41% # Number of insts commited each cycle
system.cpu.commit.committed_per_cycle::8       323857      1.59%    100.00% # Number of insts commited each cycle
system.cpu.commit.committed_per_cycle::overflows            0      0.00%    100.00% # Number of insts commited each cycle
system.cpu.commit.committed_per_cycle::min_value            0                       # Number of insts commited each cycle
system.cpu.commit.committed_per_cycle::max_value            8                       # Number of insts commited each cycle
system.cpu.commit.committed_per_cycle::total     20400244                       # Number of insts commited each cycle
system.cpu.commit.fp_insts                          0                       # Number of committed floating point instructions.
system.cpu.commit.function_calls               109017                       # Number of function calls committed.
system.cpu.commit.int_insts                   9861989                       # Number of committed integer instructions.
system.cpu.commit.loads                       1710889                       # Number of loads committed
system.cpu.commit.membars                       12120                       # Number of memory barriers committed
system.cpu.commit.op_class_0::No_OpClass         8314      0.07%      0.07% # Class of committed instruction
system.cpu.commit.op_class_0::IntAlu          7690808     67.79%     67.86% # Class of committed instruction
system.cpu.commit.op_class_0::IntMult           60460      0.53%     68.40% # Class of committed instruction
system.cpu.commit.op_class_0::IntDiv                3      0.00%     68.40% # Class of committed instruction
system.cpu.commit.op_class_0::FloatAdd              0      0.00%     68.40% # Class of committed instruction
system.cpu.commit.op_class_0::FloatCmp              0      0.00%     68.40% # Class of committed instruction
system.cpu.commit.op_class_0::FloatCvt              0      0.00%     68.40% # Class of committed instruction
system.cpu.commit.op_class_0::FloatMult             0      0.00%     68.40% # Class of committed instruction
system.cpu.commit.op_class_0::FloatMultAcc            0      0.00%     68.40% # Class of committed instruction
system.cpu.commit.op_class_0::FloatDiv              0      0.00%     68.40% # Class of committed instruction
system.cpu.commit.op_class_0::FloatMisc             0      0.00%     68.40% # Class of committed instruction
system.cpu.commit.op_class_0::FloatSqrt             0      0.00%     68.40% # Class of committed instruction
system.cpu.commit.op_class_0::SimdAdd           18890      0.17%     68.56% # Class of committed instruction
system.cpu.commit.op_class_0::SimdAddAcc            0      0.00%     68.56% # Class of committed instruction
system.cpu.commit.op_class_0::SimdAlu           18886      0.17%     68.73% # Class of committed instruction
system.cpu.commit.op_class_0::SimdCmp           16638      0.15%     68.88% # Class of committed instruction
system.cpu.commit.op_class_0::SimdCvt               0      0.00%     68.88% # Class of committed instruction
system.cpu.commit.op_class_0::SimdMisc          22677      0.20%     69.08% # Class of committed instruction
system.cpu.commit.op_class_0::SimdMult              0      0.00%     69.08% # Class of committed instruction
system.cpu.commit.op_class_0::SimdMultAcc            0      0.00%     69.08% # Class of committed instruction
system.cpu.commit.op_class_0::SimdShift             0      0.00%     69.08% # Class of committed instruction
system.cpu.commit.op_class_0::SimdShiftAcc            0      0.00%     69.08% # Class of committed instruction
system.cpu.commit.op_class_0::SimdDiv               0      0.00%     69.08% # Class of committed instruction
system.cpu.commit.op_class_0::SimdSqrt              0      0.00%     69.08% # Class of committed instruction
system.cpu.commit.op_class_0::SimdFloatAdd            0      0.00%     69.08% # Class of committed instruction
system.cpu.commit.op_class_0::SimdFloatAlu            0      0.00%     69.08% # Class of committed instruction
system.cpu.commit.op_class_0::SimdFloatCmp            0      0.00%     69.08% # Class of committed instruction
system.cpu.commit.op_class_0::SimdFloatCvt            0      0.00%     69.08% # Class of committed instruction
system.cpu.commit.op_class_0::SimdFloatDiv            0      0.00%     69.08% # Class of committed instruction
system.cpu.commit.op_class_0::SimdFloatMisc            0      0.00%     69.08% # Class of committed instruction
system.cpu.commit.op_class_0::SimdFloatMult            0      0.00%     69.08% # Class of committed instruction
system.cpu.commit.op_class_0::SimdFloatMultAcc            0      0.00%     69.08% # Class of committed instruction
system.cpu.commit.op_class_0::SimdFloatSqrt            0      0.00%     69.08% # Class of committed instruction
system.cpu.commit.op_class_0::SimdReduceAdd            0      0.00%     69.08% # Class of committed instruction
system.cpu.commit.op_class_0::SimdReduceAlu            0      0.00%     69.08% # Class of committed instruction
system.cpu.commit.op_class_0::SimdReduceCmp            0      0.00%     69.08% # Class of committed instruction
system.cpu.commit.op_class_0::SimdFloatReduceAdd            0      0.00%     69.08% # Class of committed instruction
system.cpu.commit.op_class_0::SimdFloatReduceCmp            0      0.00%     69.08% # Class of committed instruction
system.cpu.commit.op_class_0::SimdAes               0      0.00%     69.08% # Class of committed instruction
system.cpu.commit.op_class_0::SimdAesMix            0      0.00%     69.08% # Class of committed instruction
system.cpu.commit.op_class_0::SimdSha1Hash            0      0.00%     69.08% # Class of committed instruction
system.cpu.commit.op_class_0::SimdSha1Hash2            0      0.00%     69.08% # Class of committed instruction
system.cpu.commit.op_class_0::SimdSha256Hash            0      0.00%     69.08% # Class of committed instruction
system.cpu.commit.op_class_0::SimdSha256Hash2            0      0.00%     69.08% # Class of committed instruction
system.cpu.commit.op_class_0::SimdShaSigma2            0      0.00%     69.08% # Class of committed instruction
system.cpu.commit.op_class_0::SimdShaSigma3            0      0.00%     69.08% # Class of committed instruction
system.cpu.commit.op_class_0::SimdPredAlu            0      0.00%     69.08% # Class of committed instruction
system.cpu.commit.op_class_0::MemRead         1710889     15.08%     84.16% # Class of committed instruction
system.cpu.commit.op_class_0::MemWrite        1797272     15.84%    100.00% # Class of committed instruction
system.cpu.commit.op_class_0::FloatMemRead            0      0.00%    100.00% # Class of committed instruction
system.cpu.commit.op_class_0::FloatMemWrite            0      0.00%    100.00% # Class of committed instruction
system.cpu.commit.op_class_0::IprAccess             0      0.00%    100.00% # Class of committed instruction
system.cpu.commit.op_class_0::InstPrefetch            0      0.00%    100.00% # Class of committed instruction
system.cpu.commit.op_class_0::total          11344837                       # Class of committed instruction
system.cpu.commit.refs                        3508161                       # Number of memory references committed
system.cpu.commit.swp_count                         0                       # Number of s/w prefetches committed
system.cpu.commit.vec_insts                    198825                       # Number of committed Vector instructions.
system.cpu.committedInsts                    10000000                       # Number of Instructions Simulated
system.cpu.committedOps                      11338771                       # Number of Ops (including micro ops) Simulated
system.cpu.cpi                               2.265383                       # CPI: Cycles Per Instruction
system.cpu.cpi_total                         2.265383                       # CPI: Total CPI of All Threads
system.cpu.decode.BlockedCycles               3008586                       # Number of cycles decode is blocked
system.cpu.decode.BranchMispred                   256                       # Number of times decode detected a branch misprediction
system.cpu.decode.BranchResolved               914483                       # Number of times decode resolved a branch
system.cpu.decode.DecodedInsts               11387609                       # Number of instructions handled by decode
system.cpu.decode.IdleCycles                 15161830                       # Number of cycles decode is idle
system.cpu.decode.RunCycles                   2202617                       # Number of cycles decode is running
system.cpu.decode.SquashCycles                   1355                       # Number of cycles decode is squashing
system.cpu.decode.SquashedInsts                   913                       # Number of squashed instructions handled by decode
system.cpu.decode.UnblockCycles                 31235                       # Number of cycles decode is unblocking
system.cpu.dtb.accesses                             0                       # DTB accesses
system.cpu.dtb.align_faults                         0                       # Number of TLB faults due to alignment restrictions
system.cpu.dtb.domain_faults                        0                       # Number of TLB faults due to domain restrictions
system.cpu.dtb.flush_entries                        0                       # Number of entries that have been flushed from TLB
system.cpu.dtb.flush_tlb                            0                       # Number of times complete TLB was flushed
system.cpu.dtb.flush_tlb_asid                       0                       # Number of times TLB was flushed by ASID
system.cpu.dtb.flush_tlb_mva                        0                       # Number of times TLB was flushed by MVA
system.cpu.dtb.flush_tlb_mva_asid                   0                       # Number of times TLB was flushed by MVA & ASID
system.cpu.dtb.hits                                 0                       # DTB hits
system.cpu.dtb.inst_accesses                        0                       # ITB inst accesses
system.cpu.dtb.inst_hits                            0                       # ITB inst hits
system.cpu.dtb.inst_misses                          0                       # ITB inst misses
system.cpu.dtb.misses                               0                       # DTB misses
system.cpu.dtb.perms_faults                         0                       # Number of TLB faults due to permissions restrictions
system.cpu.dtb.prefetch_faults                      0                       # Number of TLB faults due to prefetch
system.cpu.dtb.read_accesses                        0                       # DTB read accesses
system.cpu.dtb.read_hits                            0                       # DTB read hits
system.cpu.dtb.read_misses                          0                       # DTB read misses
system.cpu.dtb.stage2_mmu.stage2_tlb.accesses            0                       # DTB accesses
system.cpu.dtb.stage2_mmu.stage2_tlb.align_faults            0                       # Number of TLB faults due to alignment restrictions
system.cpu.dtb.stage2_mmu.stage2_tlb.domain_faults            0                       # Number of TLB faults due to domain restrictions
system.cpu.dtb.stage2_mmu.stage2_tlb.flush_entries            0                       # Number of entries that have been flushed from TLB
system.cpu.dtb.stage2_mmu.stage2_tlb.flush_tlb            0                       # Number of times complete TLB was flushed
system.cpu.dtb.stage2_mmu.stage2_tlb.flush_tlb_asid            0                       # Number of times TLB was flushed by ASID
system.cpu.dtb.stage2_mmu.stage2_tlb.flush_tlb_mva            0                       # Number of times TLB was flushed by MVA
system.cpu.dtb.stage2_mmu.stage2_tlb.flush_tlb_mva_asid            0                       # Number of times TLB was flushed by MVA & ASID
system.cpu.dtb.stage2_mmu.stage2_tlb.hits            0                       # DTB hits
system.cpu.dtb.stage2_mmu.stage2_tlb.inst_accesses            0                       # ITB inst accesses
system.cpu.dtb.stage2_mmu.stage2_tlb.inst_hits            0                       # ITB inst hits
system.cpu.dtb.stage2_mmu.stage2_tlb.inst_misses            0                       # ITB inst misses
system.cpu.dtb.stage2_mmu.stage2_tlb.misses            0                       # DTB misses
system.cpu.dtb.stage2_mmu.stage2_tlb.perms_faults            0                       # Number of TLB faults due to permissions restrictions
system.cpu.dtb.stage2_mmu.stage2_tlb.prefetch_faults            0                       # Number of TLB faults due to prefetch
system.cpu.dtb.stage2_mmu.stage2_tlb.read_accesses            0                       # DTB read accesses
system.cpu.dtb.stage2_mmu.stage2_tlb.read_hits            0                       # DTB read hits
system.cpu.dtb.stage2_mmu.stage2_tlb.read_misses            0                       # DTB read misses
system.cpu.dtb.stage2_mmu.stage2_tlb.walker.walkRequestOrigin_Requested::Data            0                       # Table walker requests started/completed, data/inst
system.cpu.dtb.stage2_mmu.stage2_tlb.walker.walkRequestOrigin_Requested::Inst            0                       # Table walker requests started/completed, data/inst
system.cpu.dtb.stage2_mmu.stage2_tlb.walker.walkRequestOrigin_Requested::total            0                       # Table walker requests started/completed, data/inst
system.cpu.dtb.stage2_mmu.stage2_tlb.walker.walkRequestOrigin_Completed::Data            0                       # Table walker requests started/completed, data/inst
system.cpu.dtb.stage2_mmu.stage2_tlb.walker.walkRequestOrigin_Completed::Inst            0                       # Table walker requests started/completed, data/inst
system.cpu.dtb.stage2_mmu.stage2_tlb.walker.walkRequestOrigin_Completed::total            0                       # Table walker requests started/completed, data/inst
system.cpu.dtb.stage2_mmu.stage2_tlb.walker.walkRequestOrigin::total            0                       # Table walker requests started/completed, data/inst
system.cpu.dtb.stage2_mmu.stage2_tlb.walker.walks            0                       # Table walker walks requested
system.cpu.dtb.stage2_mmu.stage2_tlb.write_accesses            0                       # DTB write accesses
system.cpu.dtb.stage2_mmu.stage2_tlb.write_hits            0                       # DTB write hits
system.cpu.dtb.stage2_mmu.stage2_tlb.write_misses            0                       # DTB write misses
system.cpu.dtb.walker.walkRequestOrigin_Requested::Data            0                       # Table walker requests started/completed, data/inst
system.cpu.dtb.walker.walkRequestOrigin_Requested::Inst            0                       # Table walker requests started/completed, data/inst
system.cpu.dtb.walker.walkRequestOrigin_Requested::total            0                       # Table walker requests started/completed, data/inst
system.cpu.dtb.walker.walkRequestOrigin_Completed::Data            0                       # Table walker requests started/completed, data/inst
system.cpu.dtb.walker.walkRequestOrigin_Completed::Inst            0                       # Table walker requests started/completed, data/inst
system.cpu.dtb.walker.walkRequestOrigin_Completed::total            0                       # Table walker requests started/completed, data/inst
system.cpu.dtb.walker.walkRequestOrigin::total            0                       # Table walker requests started/completed, data/inst
system.cpu.dtb.walker.walks                         0                       # Table walker walks requested
system.cpu.dtb.write_accesses                       0                       # DTB write accesses
system.cpu.dtb.write_hits                           0                       # DTB write hits
system.cpu.dtb.write_misses                         0                       # DTB write misses
system.cpu.fetch.Branches                     2229698                       # Number of branches that fetch encountered
system.cpu.fetch.CacheLines                   1484814                       # Number of cache lines fetched
system.cpu.fetch.Cycles                       4614727                       # Number of cycles fetch has run and was not squashing or blocked
system.cpu.fetch.IcacheSquashes                   908                       # Number of outstanding Icache misses that were squashed
system.cpu.fetch.IcacheWaitRetryStallCycles           30                       # Number of stall cycles due to full MSHR
system.cpu.fetch.Insts                       10059964                       # Number of instructions fetch has processed
system.cpu.fetch.MiscStallCycles                    2                       # Number of cycles fetch has spent waiting on interrupts, or bad addresses, or out of MSHRs
system.cpu.fetch.SquashCycles                    3218                       # Number of cycles fetch has spent squashing
system.cpu.fetch.branchRate                  0.098425                       # Number of branch fetches per cycle
system.cpu.fetch.icacheStallCycles           15789255                       # Number of cycles fetch is stalled on an Icache miss
system.cpu.fetch.predictedBranches            1054741                       # Number of branches that fetch has predicted taken
system.cpu.fetch.rate                        0.444073                       # Number of inst fetches per cycle
system.cpu.fetch.rateDist::samples           20405623                       # Number of instructions fetched each cycle (Total)
system.cpu.fetch.rateDist::mean              0.558995                       # Number of instructions fetched each cycle (Total)
system.cpu.fetch.rateDist::stdev             1.799893                       # Number of instructions fetched each cycle (Total)
system.cpu.fetch.rateDist::underflows               0      0.00%      0.00% # Number of instructions fetched each cycle (Total)
system.cpu.fetch.rateDist::0                 18154858     88.97%     88.97% # Number of instructions fetched each cycle (Total)
system.cpu.fetch.rateDist::1                   231132      1.13%     90.10% # Number of instructions fetched each cycle (Total)
system.cpu.fetch.rateDist::2                   203775      1.00%     91.10% # Number of instructions fetched each cycle (Total)
system.cpu.fetch.rateDist::3                   291171      1.43%     92.53% # Number of instructions fetched each cycle (Total)
system.cpu.fetch.rateDist::4                   370020      1.81%     94.34% # Number of instructions fetched each cycle (Total)
system.cpu.fetch.rateDist::5                   205202      1.01%     95.35% # Number of instructions fetched each cycle (Total)
system.cpu.fetch.rateDist::6                    55105      0.27%     95.62% # Number of instructions fetched each cycle (Total)
system.cpu.fetch.rateDist::7                    97158      0.48%     96.09% # Number of instructions fetched each cycle (Total)
system.cpu.fetch.rateDist::8                   797202      3.91%    100.00% # Number of instructions fetched each cycle (Total)
system.cpu.fetch.rateDist::overflows                0      0.00%    100.00% # Number of instructions fetched each cycle (Total)
system.cpu.fetch.rateDist::min_value                0                       # Number of instructions fetched each cycle (Total)
system.cpu.fetch.rateDist::max_value                8                       # Number of instructions fetched each cycle (Total)
system.cpu.fetch.rateDist::total             20405623                       # Number of instructions fetched each cycle (Total)
system.cpu.idleCycles                         2248208                       # Total number of cycles that the CPU has spent unscheduled due to idling
system.cpu.iew.branchMispredicts                  789                       # Number of branch mispredicts detected at execute
system.cpu.iew.exec_branches                  2224311                       # Number of branches executed
system.cpu.iew.exec_nop                          6093                       # number of nop insts executed
system.cpu.iew.exec_rate                     0.508002                       # Inst execution rate
system.cpu.iew.exec_refs                      3659787                       # number of memory reference insts executed
system.cpu.iew.exec_stores                    1809036                       # Number of stores executed
system.cpu.iew.exec_swp                             0                       # number of swp insts executed
system.cpu.iew.iewBlockCycles                    4375                       # Number of cycles IEW is blocking
system.cpu.iew.iewDispLoadInsts               1715617                       # Number of dispatched load instructions
system.cpu.iew.iewDispNonSpecInsts              12171                       # Number of dispatched non-speculative instructions
system.cpu.iew.iewDispSquashedInsts               202                       # Number of squashed instructions skipped by dispatch
system.cpu.iew.iewDispStoreInsts              1810391                       # Number of dispatched store instructions
system.cpu.iew.iewDispatchedInsts            11382999                       # Number of instructions dispatched to IQ
system.cpu.iew.iewExecLoadInsts               1850751                       # Number of load instructions executed
system.cpu.iew.iewExecSquashedInsts               675                       # Number of squashed instructions skipped in execute
system.cpu.iew.iewExecutedInsts              11508189                       # Number of executed instructions
system.cpu.iew.iewIQFullEvents                     12                       # Number of times the IQ has become full, causing a stall
system.cpu.iew.iewIdleCycles                        0                       # Number of cycles IEW is idle
system.cpu.iew.iewLSQFullEvents                534859                       # Number of times the LSQ has become full, causing a stall
system.cpu.iew.iewSquashCycles                   1355                       # Number of cycles IEW is squashing
system.cpu.iew.iewUnblockCycles                534871                       # Number of cycles IEW is unblocking
system.cpu.iew.lsq.thread0.blockedLoads             0                       # Number of blocked loads due to partial load-store forwarding
system.cpu.iew.lsq.thread0.cacheBlocked         13286                       # Number of times an access to memory failed due to the cache being blocked
system.cpu.iew.lsq.thread0.forwLoads            66518                       # Number of loads that had data forwarded from stores
system.cpu.iew.lsq.thread0.ignoredResponses            0                       # Number of memory responses ignored because the instruction is squashed
system.cpu.iew.lsq.thread0.invAddrLoads             0                       # Number of loads ignored due to an invalid address
system.cpu.iew.lsq.thread0.invAddrSwpfs             0                       # Number of software prefetches ignored due to an invalid address
system.cpu.iew.lsq.thread0.memOrderViolation           50                       # Number of memory ordering violations
system.cpu.iew.lsq.thread0.rescheduledLoads        72575                       # Number of loads that were rescheduled
system.cpu.iew.lsq.thread0.squashedLoads         4727                       # Number of loads squashed
system.cpu.iew.lsq.thread0.squashedStores        13119                       # Number of stores squashed
system.cpu.iew.memOrderViolationEvents             50                       # Number of memory order violations
system.cpu.iew.predictedNotTakenIncorrect          669                       # Number of branches that were predicted not taken incorrectly
system.cpu.iew.predictedTakenIncorrect            120                       # Number of branches that were predicted taken incorrectly
system.cpu.iew.wb_consumers                   9890653                       # num instructions consuming a value
system.cpu.iew.wb_count                      11368481                       # cumulative count of insts written-back
system.cpu.iew.wb_fanout                     0.535276                       # average fanout of values written-back
system.cpu.iew.wb_producers                   5294225                       # num instructions producing a value
system.cpu.iew.wb_rate                       0.501835                       # insts written-back per cycle
system.cpu.iew.wb_sent                       11371647                       # cumulative count of insts sent to commit
system.cpu.int_regfile_reads                 13090531                       # number of integer regfile reads
system.cpu.int_regfile_writes                 7574113                       # number of integer regfile writes
system.cpu.ipc                               0.441426                       # IPC: Instructions Per Cycle
system.cpu.ipc_total                         0.441426                       # IPC: Total IPC of All Threads
system.cpu.iq.FU_type_0::No_OpClass              8314      0.07%      0.07% # Type of FU issued
system.cpu.iq.FU_type_0::IntAlu               7702870     66.93%     67.00% # Type of FU issued
system.cpu.iq.FU_type_0::IntMult                60466      0.53%     67.53% # Type of FU issued
system.cpu.iq.FU_type_0::IntDiv                     3      0.00%     67.53% # Type of FU issued
system.cpu.iq.FU_type_0::FloatAdd                   0      0.00%     67.53% # Type of FU issued
system.cpu.iq.FU_type_0::FloatCmp                   0      0.00%     67.53% # Type of FU issued
system.cpu.iq.FU_type_0::FloatCvt                   0      0.00%     67.53% # Type of FU issued
system.cpu.iq.FU_type_0::FloatMult                  0      0.00%     67.53% # Type of FU issued
system.cpu.iq.FU_type_0::FloatMultAcc               0      0.00%     67.53% # Type of FU issued
system.cpu.iq.FU_type_0::FloatDiv                   0      0.00%     67.53% # Type of FU issued
system.cpu.iq.FU_type_0::FloatMisc                  0      0.00%     67.53% # Type of FU issued
system.cpu.iq.FU_type_0::FloatSqrt                  0      0.00%     67.53% # Type of FU issued
system.cpu.iq.FU_type_0::SimdAdd                18891      0.16%     67.69% # Type of FU issued
system.cpu.iq.FU_type_0::SimdAddAcc                 0      0.00%     67.69% # Type of FU issued
system.cpu.iq.FU_type_0::SimdAlu                18888      0.16%     67.86% # Type of FU issued
system.cpu.iq.FU_type_0::SimdCmp                16638      0.14%     68.00% # Type of FU issued
system.cpu.iq.FU_type_0::SimdCvt                    0      0.00%     68.00% # Type of FU issued
system.cpu.iq.FU_type_0::SimdMisc               22690      0.20%     68.20% # Type of FU issued
system.cpu.iq.FU_type_0::SimdMult                   0      0.00%     68.20% # Type of FU issued
system.cpu.iq.FU_type_0::SimdMultAcc                0      0.00%     68.20% # Type of FU issued
system.cpu.iq.FU_type_0::SimdShift                  0      0.00%     68.20% # Type of FU issued
system.cpu.iq.FU_type_0::SimdShiftAcc               0      0.00%     68.20% # Type of FU issued
system.cpu.iq.FU_type_0::SimdDiv                    0      0.00%     68.20% # Type of FU issued
system.cpu.iq.FU_type_0::SimdSqrt                   0      0.00%     68.20% # Type of FU issued
system.cpu.iq.FU_type_0::SimdFloatAdd               0      0.00%     68.20% # Type of FU issued
system.cpu.iq.FU_type_0::SimdFloatAlu               0      0.00%     68.20% # Type of FU issued
system.cpu.iq.FU_type_0::SimdFloatCmp               0      0.00%     68.20% # Type of FU issued
system.cpu.iq.FU_type_0::SimdFloatCvt               0      0.00%     68.20% # Type of FU issued
system.cpu.iq.FU_type_0::SimdFloatDiv               0      0.00%     68.20% # Type of FU issued
system.cpu.iq.FU_type_0::SimdFloatMisc              0      0.00%     68.20% # Type of FU issued
system.cpu.iq.FU_type_0::SimdFloatMult              0      0.00%     68.20% # Type of FU issued
system.cpu.iq.FU_type_0::SimdFloatMultAcc            0      0.00%     68.20% # Type of FU issued
system.cpu.iq.FU_type_0::SimdFloatSqrt              0      0.00%     68.20% # Type of FU issued
system.cpu.iq.FU_type_0::SimdReduceAdd              0      0.00%     68.20% # Type of FU issued
system.cpu.iq.FU_type_0::SimdReduceAlu              0      0.00%     68.20% # Type of FU issued
system.cpu.iq.FU_type_0::SimdReduceCmp              0      0.00%     68.20% # Type of FU issued
system.cpu.iq.FU_type_0::SimdFloatReduceAdd            0      0.00%     68.20% # Type of FU issued
system.cpu.iq.FU_type_0::SimdFloatReduceCmp            0      0.00%     68.20% # Type of FU issued
system.cpu.iq.FU_type_0::SimdAes                    0      0.00%     68.20% # Type of FU issued
system.cpu.iq.FU_type_0::SimdAesMix                 0      0.00%     68.20% # Type of FU issued
system.cpu.iq.FU_type_0::SimdSha1Hash               0      0.00%     68.20% # Type of FU issued
system.cpu.iq.FU_type_0::SimdSha1Hash2              0      0.00%     68.20% # Type of FU issued
system.cpu.iq.FU_type_0::SimdSha256Hash             0      0.00%     68.20% # Type of FU issued
system.cpu.iq.FU_type_0::SimdSha256Hash2            0      0.00%     68.20% # Type of FU issued
system.cpu.iq.FU_type_0::SimdShaSigma2              0      0.00%     68.20% # Type of FU issued
system.cpu.iq.FU_type_0::SimdShaSigma3              0      0.00%     68.20% # Type of FU issued
system.cpu.iq.FU_type_0::SimdPredAlu                0      0.00%     68.20% # Type of FU issued
system.cpu.iq.FU_type_0::MemRead              1850898     16.08%     84.28% # Type of FU issued
system.cpu.iq.FU_type_0::MemWrite             1809208     15.72%    100.00% # Type of FU issued
system.cpu.iq.FU_type_0::FloatMemRead               0      0.00%    100.00% # Type of FU issued
system.cpu.iq.FU_type_0::FloatMemWrite              0      0.00%    100.00% # Type of FU issued
system.cpu.iq.FU_type_0::IprAccess                  0      0.00%    100.00% # Type of FU issued
system.cpu.iq.FU_type_0::InstPrefetch               0      0.00%    100.00% # Type of FU issued
system.cpu.iq.FU_type_0::total               11508866                       # Type of FU issued
system.cpu.iq.fp_alu_accesses                       0                       # Number of floating point alu accesses
system.cpu.iq.fp_inst_queue_reads                   0                       # Number of floating instruction queue reads
system.cpu.iq.fp_inst_queue_wakeup_accesses            0                       # Number of floating instruction queue wakeup accesses
system.cpu.iq.fp_inst_queue_writes                  0                       # Number of floating instruction queue writes
system.cpu.iq.fu_busy_cnt                      199879                       # FU busy when requested
system.cpu.iq.fu_busy_rate                   0.017367                       # FU busy rate (busy events/executed inst)
system.cpu.iq.fu_full::No_OpClass                   0      0.00%      0.00% # attempts to use FU when none available
system.cpu.iq.fu_full::IntAlu                   24266     12.14%     12.14% # attempts to use FU when none available
system.cpu.iq.fu_full::IntMult                      0      0.00%     12.14% # attempts to use FU when none available
system.cpu.iq.fu_full::IntDiv                       0      0.00%     12.14% # attempts to use FU when none available
system.cpu.iq.fu_full::FloatAdd                     0      0.00%     12.14% # attempts to use FU when none available
system.cpu.iq.fu_full::FloatCmp                     0      0.00%     12.14% # attempts to use FU when none available
system.cpu.iq.fu_full::FloatCvt                     0      0.00%     12.14% # attempts to use FU when none available
system.cpu.iq.fu_full::FloatMult                    0      0.00%     12.14% # attempts to use FU when none available
system.cpu.iq.fu_full::FloatMultAcc                 0      0.00%     12.14% # attempts to use FU when none available
system.cpu.iq.fu_full::FloatDiv                     0      0.00%     12.14% # attempts to use FU when none available
system.cpu.iq.fu_full::FloatMisc                    0      0.00%     12.14% # attempts to use FU when none available
system.cpu.iq.fu_full::FloatSqrt                    0      0.00%     12.14% # attempts to use FU when none available
system.cpu.iq.fu_full::SimdAdd                      0      0.00%     12.14% # attempts to use FU when none available
system.cpu.iq.fu_full::SimdAddAcc                   0      0.00%     12.14% # attempts to use FU when none available
system.cpu.iq.fu_full::SimdAlu                      2      0.00%     12.14% # attempts to use FU when none available
system.cpu.iq.fu_full::SimdCmp                      2      0.00%     12.14% # attempts to use FU when none available
system.cpu.iq.fu_full::SimdCvt                      0      0.00%     12.14% # attempts to use FU when none available
system.cpu.iq.fu_full::SimdMisc                     0      0.00%     12.14% # attempts to use FU when none available
system.cpu.iq.fu_full::SimdMult                     0      0.00%     12.14% # attempts to use FU when none available
system.cpu.iq.fu_full::SimdMultAcc                  0      0.00%     12.14% # attempts to use FU when none available
system.cpu.iq.fu_full::SimdShift                    0      0.00%     12.14% # attempts to use FU when none available
system.cpu.iq.fu_full::SimdShiftAcc                 0      0.00%     12.14% # attempts to use FU when none available
system.cpu.iq.fu_full::SimdDiv                      0      0.00%     12.14% # attempts to use FU when none available
system.cpu.iq.fu_full::SimdSqrt                     0      0.00%     12.14% # attempts to use FU when none available
system.cpu.iq.fu_full::SimdFloatAdd                 0      0.00%     12.14% # attempts to use FU when none available
system.cpu.iq.fu_full::SimdFloatAlu                 0      0.00%     12.14% # attempts to use FU when none available
system.cpu.iq.fu_full::SimdFloatCmp                 0      0.00%     12.14% # attempts to use FU when none available
system.cpu.iq.fu_full::SimdFloatCvt                 0      0.00%     12.14% # attempts to use FU when none available
system.cpu.iq.fu_full::SimdFloatDiv                 0      0.00%     12.14% # attempts to use FU when none available
system.cpu.iq.fu_full::SimdFloatMisc                0      0.00%     12.14% # attempts to use FU when none available
system.cpu.iq.fu_full::SimdFloatMult                0      0.00%     12.14% # attempts to use FU when none available
system.cpu.iq.fu_full::SimdFloatMultAcc             0      0.00%     12.14% # attempts to use FU when none available
system.cpu.iq.fu_full::SimdFloatSqrt                0      0.00%     12.14% # attempts to use FU when none available
system.cpu.iq.fu_full::SimdReduceAdd                0      0.00%     12.14% # attempts to use FU when none available
system.cpu.iq.fu_full::SimdReduceAlu                0      0.00%     12.14% # attempts to use FU when none available
system.cpu.iq.fu_full::SimdReduceCmp                0      0.00%     12.14% # attempts to use FU when none available
system.cpu.iq.fu_full::SimdFloatReduceAdd            0      0.00%     12.14% # attempts to use FU when none available
system.cpu.iq.fu_full::SimdFloatReduceCmp            0      0.00%     12.14% # attempts to use FU when none available
system.cpu.iq.fu_full::SimdAes                      0      0.00%     12.14% # attempts to use FU when none available
system.cpu.iq.fu_full::SimdAesMix                   0      0.00%     12.14% # attempts to use FU when none available
system.cpu.iq.fu_full::SimdSha1Hash                 0      0.00%     12.14% # attempts to use FU when none available
system.cpu.iq.fu_full::SimdSha1Hash2                0      0.00%     12.14% # attempts to use FU when none available
system.cpu.iq.fu_full::SimdSha256Hash               0      0.00%     12.14% # attempts to use FU when none available
system.cpu.iq.fu_full::SimdSha256Hash2              0      0.00%     12.14% # attempts to use FU when none available
system.cpu.iq.fu_full::SimdShaSigma2                0      0.00%     12.14% # attempts to use FU when none available
system.cpu.iq.fu_full::SimdShaSigma3                0      0.00%     12.14% # attempts to use FU when none available
system.cpu.iq.fu_full::SimdPredAlu                  0      0.00%     12.14% # attempts to use FU when none available
system.cpu.iq.fu_full::MemRead                  46549     23.29%     35.43% # attempts to use FU when none available
system.cpu.iq.fu_full::MemWrite                129060     64.57%    100.00% # attempts to use FU when none available
system.cpu.iq.fu_full::FloatMemRead                 0      0.00%    100.00% # attempts to use FU when none available
system.cpu.iq.fu_full::FloatMemWrite                0      0.00%    100.00% # attempts to use FU when none available
system.cpu.iq.fu_full::IprAccess                    0      0.00%    100.00% # attempts to use FU when none available
system.cpu.iq.fu_full::InstPrefetch                 0      0.00%    100.00% # attempts to use FU when none available
system.cpu.iq.int_alu_accesses               11485622                       # Number of integer alu accesses
system.cpu.iq.int_inst_queue_reads           43201250                       # Number of integer instruction queue reads
system.cpu.iq.int_inst_queue_wakeup_accesses     11169608                       # Number of integer instruction queue wakeup accesses
system.cpu.iq.int_inst_queue_writes          11215619                       # Number of integer instruction queue writes
system.cpu.iq.iqInstsAdded                   11364735                       # Number of instructions added to the IQ (excludes non-spec)
system.cpu.iq.iqInstsIssued                  11508866                       # Number of instructions issued
system.cpu.iq.iqNonSpecInstsAdded               12171                       # Number of non-speculative instructions added to the IQ
system.cpu.iq.iqSquashedInstsExamined           38127                       # Number of squashed instructions iterated over during squash; mainly for profiling
system.cpu.iq.iqSquashedInstsIssued               104                       # Number of squashed instructions issued
system.cpu.iq.iqSquashedNonSpecRemoved             29                       # Number of squashed non-spec instructions that were removed
system.cpu.iq.iqSquashedOperandsExamined        14071                       # Number of squashed operands that are examined and possibly removed from graph
system.cpu.iq.issued_per_cycle::samples      20405623                       # Number of insts issued each cycle
system.cpu.iq.issued_per_cycle::mean         0.564005                       # Number of insts issued each cycle
system.cpu.iq.issued_per_cycle::stdev        1.342016                       # Number of insts issued each cycle
system.cpu.iq.issued_per_cycle::underflows            0      0.00%      0.00% # Number of insts issued each cycle
system.cpu.iq.issued_per_cycle::0            16028726     78.55%     78.55% # Number of insts issued each cycle
system.cpu.iq.issued_per_cycle::1             1563556      7.66%     86.21% # Number of insts issued each cycle
system.cpu.iq.issued_per_cycle::2              955053      4.68%     90.89% # Number of insts issued each cycle
system.cpu.iq.issued_per_cycle::3              637779      3.13%     94.02% # Number of insts issued each cycle
system.cpu.iq.issued_per_cycle::4              510327      2.50%     96.52% # Number of insts issued each cycle
system.cpu.iq.issued_per_cycle::5              324457      1.59%     98.11% # Number of insts issued each cycle
system.cpu.iq.issued_per_cycle::6              283889      1.39%     99.50% # Number of insts issued each cycle
system.cpu.iq.issued_per_cycle::7               59748      0.29%     99.79% # Number of insts issued each cycle
system.cpu.iq.issued_per_cycle::8               42088      0.21%    100.00% # Number of insts issued each cycle
system.cpu.iq.issued_per_cycle::overflows            0      0.00%    100.00% # Number of insts issued each cycle
system.cpu.iq.issued_per_cycle::min_value            0                       # Number of insts issued each cycle
system.cpu.iq.issued_per_cycle::max_value            8                       # Number of insts issued each cycle
system.cpu.iq.issued_per_cycle::total        20405623                       # Number of insts issued each cycle
system.cpu.iq.rate                           0.508032                       # Inst issue rate
system.cpu.iq.vec_alu_accesses                 214809                       # Number of vector alu accesses
system.cpu.iq.vec_inst_queue_reads             422086                       # Number of vector instruction queue reads
system.cpu.iq.vec_inst_queue_wakeup_accesses       198873                       # Number of vector instruction queue wakeup accesses
system.cpu.iq.vec_inst_queue_writes            199463                       # Number of vector instruction queue writes
system.cpu.itb.accesses                             0                       # DTB accesses
system.cpu.itb.align_faults                         0                       # Number of TLB faults due to alignment restrictions
system.cpu.itb.domain_faults                        0                       # Number of TLB faults due to domain restrictions
system.cpu.itb.flush_entries                        0                       # Number of entries that have been flushed from TLB
system.cpu.itb.flush_tlb                            0                       # Number of times complete TLB was flushed
system.cpu.itb.flush_tlb_asid                       0                       # Number of times TLB was flushed by ASID
system.cpu.itb.flush_tlb_mva                        0                       # Number of times TLB was flushed by MVA
system.cpu.itb.flush_tlb_mva_asid                   0                       # Number of times TLB was flushed by MVA & ASID
system.cpu.itb.hits                                 0                       # DTB hits
system.cpu.itb.inst_accesses                        0                       # ITB inst accesses
system.cpu.itb.inst_hits                            0                       # ITB inst hits
system.cpu.itb.inst_misses                          0                       # ITB inst misses
system.cpu.itb.misses                               0                       # DTB misses
system.cpu.itb.perms_faults                         0                       # Number of TLB faults due to permissions restrictions
system.cpu.itb.prefetch_faults                      0                       # Number of TLB faults due to prefetch
system.cpu.itb.read_accesses                        0                       # DTB read accesses
system.cpu.itb.read_hits                            0                       # DTB read hits
system.cpu.itb.read_misses                          0                       # DTB read misses
system.cpu.itb.stage2_mmu.stage2_tlb.accesses            0                       # DTB accesses
system.cpu.itb.stage2_mmu.stage2_tlb.align_faults            0                       # Number of TLB faults due to alignment restrictions
system.cpu.itb.stage2_mmu.stage2_tlb.domain_faults            0                       # Number of TLB faults due to domain restrictions
system.cpu.itb.stage2_mmu.stage2_tlb.flush_entries            0                       # Number of entries that have been flushed from TLB
system.cpu.itb.stage2_mmu.stage2_tlb.flush_tlb            0                       # Number of times complete TLB was flushed
system.cpu.itb.stage2_mmu.stage2_tlb.flush_tlb_asid            0                       # Number of times TLB was flushed by ASID
system.cpu.itb.stage2_mmu.stage2_tlb.flush_tlb_mva            0                       # Number of times TLB was flushed by MVA
system.cpu.itb.stage2_mmu.stage2_tlb.flush_tlb_mva_asid            0                       # Number of times TLB was flushed by MVA & ASID
system.cpu.itb.stage2_mmu.stage2_tlb.hits            0                       # DTB hits
system.cpu.itb.stage2_mmu.stage2_tlb.inst_accesses            0                       # ITB inst accesses
system.cpu.itb.stage2_mmu.stage2_tlb.inst_hits            0                       # ITB inst hits
system.cpu.itb.stage2_mmu.stage2_tlb.inst_misses            0                       # ITB inst misses
system.cpu.itb.stage2_mmu.stage2_tlb.misses            0                       # DTB misses
system.cpu.itb.stage2_mmu.stage2_tlb.perms_faults            0                       # Number of TLB faults due to permissions restrictions
system.cpu.itb.stage2_mmu.stage2_tlb.prefetch_faults            0                       # Number of TLB faults due to prefetch
system.cpu.itb.stage2_mmu.stage2_tlb.read_accesses            0                       # DTB read accesses
system.cpu.itb.stage2_mmu.stage2_tlb.read_hits            0                       # DTB read hits
system.cpu.itb.stage2_mmu.stage2_tlb.read_misses            0                       # DTB read misses
system.cpu.itb.stage2_mmu.stage2_tlb.walker.walkRequestOrigin_Requested::Data            0                       # Table walker requests started/completed, data/inst
system.cpu.itb.stage2_mmu.stage2_tlb.walker.walkRequestOrigin_Requested::Inst            0                       # Table walker requests started/completed, data/inst
system.cpu.itb.stage2_mmu.stage2_tlb.walker.walkRequestOrigin_Requested::total            0                       # Table walker requests started/completed, data/inst
system.cpu.itb.stage2_mmu.stage2_tlb.walker.walkRequestOrigin_Completed::Data            0                       # Table walker requests started/completed, data/inst
system.cpu.itb.stage2_mmu.stage2_tlb.walker.walkRequestOrigin_Completed::Inst            0                       # Table walker requests started/completed, data/inst
system.cpu.itb.stage2_mmu.stage2_tlb.walker.walkRequestOrigin_Completed::total            0                       # Table walker requests started/completed, data/inst
system.cpu.itb.stage2_mmu.stage2_tlb.walker.walkRequestOrigin::total            0                       # Table walker requests started/completed, data/inst
system.cpu.itb.stage2_mmu.stage2_tlb.walker.walks            0                       # Table walker walks requested
system.cpu.itb.stage2_mmu.stage2_tlb.write_accesses            0                       # DTB write accesses
system.cpu.itb.stage2_mmu.stage2_tlb.write_hits            0                       # DTB write hits
system.cpu.itb.stage2_mmu.stage2_tlb.write_misses            0                       # DTB write misses
system.cpu.itb.walker.walkRequestOrigin_Requested::Data            0                       # Table walker requests started/completed, data/inst
system.cpu.itb.walker.walkRequestOrigin_Requested::Inst            0                       # Table walker requests started/completed, data/inst
system.cpu.itb.walker.walkRequestOrigin_Requested::total            0                       # Table walker requests started/completed, data/inst
system.cpu.itb.walker.walkRequestOrigin_Completed::Data            0                       # Table walker requests started/completed, data/inst
system.cpu.itb.walker.walkRequestOrigin_Completed::Inst            0                       # Table walker requests started/completed, data/inst
system.cpu.itb.walker.walkRequestOrigin_Completed::total            0                       # Table walker requests started/completed, data/inst
system.cpu.itb.walker.walkRequestOrigin::total            0                       # Table walker requests started/completed, data/inst
system.cpu.itb.walker.walks                         0                       # Table walker walks requested
system.cpu.itb.write_accesses                       0                       # DTB write accesses
system.cpu.itb.write_hits                           0                       # DTB write hits
system.cpu.itb.write_misses                         0                       # DTB write misses
system.cpu.memDep0.conflictingLoads             48518                       # Number of conflicting loads.
system.cpu.memDep0.conflictingStores            36321                       # Number of conflicting stores.
system.cpu.memDep0.insertedLoads              1715617                       # Number of loads inserted to the mem dependence unit.
system.cpu.memDep0.insertedStores             1810391                       # Number of stores inserted to the mem dependence unit.
system.cpu.misc_regfile_reads                 7785512                       # number of misc regfile reads
system.cpu.misc_regfile_writes                  48481                       # number of misc regfile writes
system.cpu.numCycles                         22653831                       # number of cpu cycles simulated
system.cpu.numWorkItemsCompleted                    0                       # number of work items this cpu completed
system.cpu.numWorkItemsStarted                      0                       # number of work items this cpu started
system.cpu.rename.BlockCycles                  539282                       # Number of cycles rename is blocking
system.cpu.rename.CommittedMaps              12114552                       # Number of HB maps that are committed
system.cpu.rename.IQFullEvents                     74                       # Number of times rename has blocked due to IQ full
system.cpu.rename.IdleCycles                 15180684                       # Number of cycles rename is idle
system.cpu.rename.LQFullEvents                      9                       # Number of times rename has blocked due to LQ full
system.cpu.rename.ROBFullEvents                     5                       # Number of times rename has blocked due to ROB full
system.cpu.rename.RenameLookups              18367972                       # Number of register rename lookups that rename has made
system.cpu.rename.RenamedInsts               11384621                       # Number of instructions processed by rename
system.cpu.rename.RenamedOperands            12144958                       # Number of destination operands rename has renamed
system.cpu.rename.RunCycles                   2215000                       # Number of cycles rename is running
system.cpu.rename.SQFullEvents                 112724                       # Number of times rename has blocked due to SQ full
system.cpu.rename.SquashCycles                   1355                       # Number of cycles rename is squashing
system.cpu.rename.UnblockCycles                161295                       # Number of cycles rename is unblocking
system.cpu.rename.UndoneMaps                    30384                       # Number of HB maps that are undone due to squashing
system.cpu.rename.int_rename_lookups         12962116                       # Number of integer rename lookups
system.cpu.rename.serializeStallCycles        2308007                       # count of cycles rename stalled for serializing inst
system.cpu.rename.serializingInsts              36785                       # count of serializing insts renamed
system.cpu.rename.skidInsts                    239483                       # count of insts added to the skid buffer
system.cpu.rename.tempSerializingInsts          12171                       # count of temporary serializing insts renamed
system.cpu.rename.vec_rename_lookups           241555                       # Number of vector rename lookups
system.cpu.rob.rob_reads                     31450661                       # The number of ROB reads
system.cpu.rob.rob_writes                    22770059                       # The number of ROB writes
system.cpu.timesIdled                          541516                       # Number of times that the entire CPU went into an idle state and unscheduled itself
system.cpu.vec_regfile_reads                   241159                       # number of vector regfile reads
system.cpu.vec_regfile_writes                   99801                       # number of vector regfile writes
system.cpu.workload.numSyscalls                    21                       # Number of system calls
system.membus.snoop_filter.hit_multi_requests            0                       # Number of requests hitting in the snoop filter with multiple (>1) holders of the requested data.
system.membus.snoop_filter.hit_multi_snoops            0                       # Number of snoops hitting in the snoop filter with multiple (>1) holders of the requested data.
system.membus.snoop_filter.hit_single_requests         5821                       # Number of requests hitting in the snoop filter with a single holder of the requested data.
system.membus.snoop_filter.hit_single_snoops            0                       # Number of snoops hitting in the snoop filter with a single holder of the requested data.
system.membus.snoop_filter.tot_requests         44468                       # Total number of requests made to the snoop filter.
system.membus.snoop_filter.tot_snoops               0                       # Total number of snoops made to the snoop filter.
system.tol2bus.snoop_filter.hit_multi_requests            1                       # Number of requests hitting in the snoop filter with multiple (>1) holders of the requested data.
system.tol2bus.snoop_filter.hit_multi_snoops            0                       # Number of snoops hitting in the snoop filter with multiple (>1) holders of the requested data.
system.tol2bus.snoop_filter.hit_single_requests       698979                       # Number of requests hitting in the snoop filter with a single holder of the requested data.
system.tol2bus.snoop_filter.hit_single_snoops           56                       # Number of snoops hitting in the snoop filter with a single holder of the requested data.
system.tol2bus.snoop_filter.tot_requests      1399047                       # Total number of requests made to the snoop filter.
system.tol2bus.snoop_filter.tot_snoops             56                       # Total number of snoops made to the snoop filter.
system.membus.trans_dist::ReadResp               5379                       # Transaction distribution
system.membus.trans_dist::WritebackDirty         5365                       # Transaction distribution
system.membus.trans_dist::CleanEvict              456                       # Transaction distribution
system.membus.trans_dist::ReadExReq             33253                       # Transaction distribution
system.membus.trans_dist::ReadExResp            33253                       # Transaction distribution
system.membus.trans_dist::ReadSharedReq          5379                       # Transaction distribution
system.membus.trans_dist::InvalidateReq            15                       # Transaction distribution
system.membus.pkt_count_system.l2.mem_side::system.mem_ctrls.port        83100                       # Packet count per connected master and slave (bytes)
system.membus.pkt_count::total                  83100                       # Packet count per connected master and slave (bytes)
system.membus.pkt_size_system.l2.mem_side::system.mem_ctrls.port      2815808                       # Cumulative packet size per connected master and slave (bytes)
system.membus.pkt_size::total                 2815808                       # Cumulative packet size per connected master and slave (bytes)
system.membus.snoops                                0                       # Total snoops (count)
system.membus.snoopTraffic                          0                       # Total snoop traffic (bytes)
system.membus.snoop_fanout::samples             38647                       # Request fanout histogram
system.membus.snoop_fanout::mean                    0                       # Request fanout histogram
system.membus.snoop_fanout::stdev                   0                       # Request fanout histogram
system.membus.snoop_fanout::underflows              0      0.00%      0.00% # Request fanout histogram
system.membus.snoop_fanout::0                   38647    100.00%    100.00% # Request fanout histogram
system.membus.snoop_fanout::1                       0      0.00%    100.00% # Request fanout histogram
system.membus.snoop_fanout::overflows               0      0.00%    100.00% # Request fanout histogram
system.membus.snoop_fanout::min_value               0                       # Request fanout histogram
system.membus.snoop_fanout::max_value               0                       # Request fanout histogram
system.membus.snoop_fanout::total               38647                       # Request fanout histogram
system.membus.reqLayer0.occupancy            75312500                       # Layer occupancy (ticks)
system.membus.reqLayer0.utilization               0.7                       # Layer utilization (%)
system.membus.respLayer1.occupancy          199817000                       # Layer occupancy (ticks)
system.membus.respLayer1.utilization              1.8                       # Layer utilization (%)
system.membus.power_state.pwrStateResidencyTicks::UNDEFINED  11326915000                       # Cumulative time (in ticks) in various power states
system.tol2bus.trans_dist::ReadResp            666796                       # Transaction distribution
system.tol2bus.trans_dist::WritebackDirty        42379                       # Transaction distribution
system.tol2bus.trans_dist::WritebackClean       660653                       # Transaction distribution
system.tol2bus.trans_dist::CleanEvict            1824                       # Transaction distribution
system.tol2bus.trans_dist::ReadExReq            33256                       # Transaction distribution
system.tol2bus.trans_dist::ReadExResp           33256                       # Transaction distribution
system.tol2bus.trans_dist::ReadCleanReq        660718                       # Transaction distribution
system.tol2bus.trans_dist::ReadSharedReq         6079                       # Transaction distribution
system.tol2bus.trans_dist::InvalidateReq           15                       # Transaction distribution
system.tol2bus.trans_dist::InvalidateResp           15                       # Transaction distribution
system.tol2bus.pkt_count_system.cpu.icache.mem_side::system.l2.cpu_side      1982088                       # Packet count per connected master and slave (bytes)
system.tol2bus.pkt_count_system.cpu.dcache.mem_side::system.l2.cpu_side       117026                       # Packet count per connected master and slave (bytes)
system.tol2bus.pkt_count::total               2099114                       # Packet count per connected master and slave (bytes)
system.tol2bus.pkt_size_system.cpu.icache.mem_side::system.l2.cpu_side     84567680                       # Cumulative packet size per connected master and slave (bytes)
system.tol2bus.pkt_size_system.cpu.dcache.mem_side::system.l2.cpu_side      4886336                       # Cumulative packet size per connected master and slave (bytes)
system.tol2bus.pkt_size::total               89454016                       # Cumulative packet size per connected master and slave (bytes)
system.tol2bus.snoops                            5877                       # Total snoops (count)
system.tol2bus.snoopTraffic                    343360                       # Total snoop traffic (bytes)
system.tol2bus.snoop_fanout::samples           705945                       # Request fanout histogram
system.tol2bus.snoop_fanout::mean            0.000081                       # Request fanout histogram
system.tol2bus.snoop_fanout::stdev           0.008985                       # Request fanout histogram
system.tol2bus.snoop_fanout::underflows             0      0.00%      0.00% # Request fanout histogram
system.tol2bus.snoop_fanout::0                 705888     99.99%     99.99% # Request fanout histogram
system.tol2bus.snoop_fanout::1                     57      0.01%    100.00% # Request fanout histogram
system.tol2bus.snoop_fanout::2                      0      0.00%    100.00% # Request fanout histogram
system.tol2bus.snoop_fanout::overflows              0      0.00%    100.00% # Request fanout histogram
system.tol2bus.snoop_fanout::min_value              0                       # Request fanout histogram
system.tol2bus.snoop_fanout::max_value              1                       # Request fanout histogram
system.tol2bus.snoop_fanout::total             705945                       # Request fanout histogram
system.tol2bus.reqLayer0.occupancy         1397190500                       # Layer occupancy (ticks)
system.tol2bus.reqLayer0.utilization             12.3                       # Layer utilization (%)
system.tol2bus.respLayer1.occupancy          59010998                       # Layer occupancy (ticks)
system.tol2bus.respLayer1.utilization             0.5                       # Layer utilization (%)
system.tol2bus.respLayer0.occupancy         991075500                       # Layer occupancy (ticks)
system.tol2bus.respLayer0.utilization             8.7                       # Layer utilization (%)
system.tol2bus.power_state.pwrStateResidencyTicks::UNDEFINED  11326915000                       # Cumulative time (in ticks) in various power states
system.voltage_domain.voltage                       1                       # Voltage in Volts
system.clk_domain.clock                          1000                       # Clock period in ticks
system.l2.demand_hits::.cpu.inst               660200                       # number of demand (read+write) hits
system.l2.demand_hits::.cpu.data                 1221                       # number of demand (read+write) hits
system.l2.demand_hits::total                   661421                       # number of demand (read+write) hits
system.l2.overall_hits::.cpu.inst              660200                       # number of overall hits
system.l2.overall_hits::.cpu.data                1221                       # number of overall hits
system.l2.overall_hits::total                  661421                       # number of overall hits
system.l2.demand_misses::.cpu.inst                518                       # number of demand (read+write) misses
system.l2.demand_misses::.cpu.data              38114                       # number of demand (read+write) misses
system.l2.demand_misses::total                  38632                       # number of demand (read+write) misses
system.l2.overall_misses::.cpu.inst               518                       # number of overall misses
system.l2.overall_misses::.cpu.data             38114                       # number of overall misses
system.l2.overall_misses::total                 38632                       # number of overall misses
system.l2.demand_miss_latency::.cpu.inst     40403500                       # number of demand (read+write) miss cycles
system.l2.demand_miss_latency::.cpu.data   3192422000                       # number of demand (read+write) miss cycles
system.l2.demand_miss_latency::total       3232825500                       # number of demand (read+write) miss cycles
system.l2.overall_miss_latency::.cpu.inst     40403500                       # number of overall miss cycles
system.l2.overall_miss_latency::.cpu.data   3192422000                       # number of overall miss cycles
system.l2.overall_miss_latency::total      3232825500                       # number of overall miss cycles
system.l2.demand_accesses::.cpu.inst           660718                       # number of demand (read+write) accesses
system.l2.demand_accesses::.cpu.data            39335                       # number of demand (read+write) accesses
system.l2.demand_accesses::total               700053                       # number of demand (read+write) accesses
system.l2.overall_accesses::.cpu.inst          660718                       # number of overall (read+write) accesses
system.l2.overall_accesses::.cpu.data           39335                       # number of overall (read+write) accesses
system.l2.overall_accesses::total              700053                       # number of overall (read+write) accesses
system.l2.demand_miss_rate::.cpu.inst        0.000784                       # miss rate for demand accesses
system.l2.demand_miss_rate::.cpu.data        0.968959                       # miss rate for demand accesses
system.l2.demand_miss_rate::total            0.055184                       # miss rate for demand accesses
system.l2.overall_miss_rate::.cpu.inst       0.000784                       # miss rate for overall accesses
system.l2.overall_miss_rate::.cpu.data       0.968959                       # miss rate for overall accesses
system.l2.overall_miss_rate::total           0.055184                       # miss rate for overall accesses
system.l2.demand_avg_miss_latency::.cpu.inst 77999.034749                       # average overall miss latency
system.l2.demand_avg_miss_latency::.cpu.data 83759.825786                       # average overall miss latency
system.l2.demand_avg_miss_latency::total 83682.581797                       # average overall miss latency
system.l2.overall_avg_miss_latency::.cpu.inst 77999.034749                       # average overall miss latency
system.l2.overall_avg_miss_latency::.cpu.data 83759.825786                       # average overall miss latency
system.l2.overall_avg_miss_latency::total 83682.581797                       # average overall miss latency
system.l2.blocked_cycles::no_mshrs                  0                       # number of cycles access was blocked
system.l2.blocked_cycles::no_targets                0                       # number of cycles access was blocked
system.l2.blocked::no_mshrs                         0                       # number of cycles access was blocked
system.l2.blocked::no_targets                       0                       # number of cycles access was blocked
system.l2.avg_blocked_cycles::no_mshrs            nan                       # average number of cycles each access was blocked
system.l2.avg_blocked_cycles::no_targets          nan                       # average number of cycles each access was blocked
system.l2.writebacks::.writebacks                5365                       # number of writebacks
system.l2.writebacks::total                      5365                       # number of writebacks
system.l2.demand_mshr_misses::.cpu.inst           518                       # number of demand (read+write) MSHR misses
system.l2.demand_mshr_misses::.cpu.data         38114                       # number of demand (read+write) MSHR misses
system.l2.demand_mshr_misses::total             38632                       # number of demand (read+write) MSHR misses
system.l2.overall_mshr_misses::.cpu.inst          518                       # number of overall MSHR misses
system.l2.overall_mshr_misses::.cpu.data        38114                       # number of overall MSHR misses
system.l2.overall_mshr_misses::total            38632                       # number of overall MSHR misses
system.l2.demand_mshr_miss_latency::.cpu.inst     35223500                       # number of demand (read+write) MSHR miss cycles
system.l2.demand_mshr_miss_latency::.cpu.data   2811282000                       # number of demand (read+write) MSHR miss cycles
system.l2.demand_mshr_miss_latency::total   2846505500                       # number of demand (read+write) MSHR miss cycles
system.l2.overall_mshr_miss_latency::.cpu.inst     35223500                       # number of overall MSHR miss cycles
system.l2.overall_mshr_miss_latency::.cpu.data   2811282000                       # number of overall MSHR miss cycles
system.l2.overall_mshr_miss_latency::total   2846505500                       # number of overall MSHR miss cycles
system.l2.demand_mshr_miss_rate::.cpu.inst     0.000784                       # mshr miss rate for demand accesses
system.l2.demand_mshr_miss_rate::.cpu.data     0.968959                       # mshr miss rate for demand accesses
system.l2.demand_mshr_miss_rate::total       0.055184                       # mshr miss rate for demand accesses
system.l2.overall_mshr_miss_rate::.cpu.inst     0.000784                       # mshr miss rate for overall accesses
system.l2.overall_mshr_miss_rate::.cpu.data     0.968959                       # mshr miss rate for overall accesses
system.l2.overall_mshr_miss_rate::total      0.055184                       # mshr miss rate for overall accesses
system.l2.demand_avg_mshr_miss_latency::.cpu.inst 67999.034749                       # average overall mshr miss latency
system.l2.demand_avg_mshr_miss_latency::.cpu.data 73759.825786                       # average overall mshr miss latency
system.l2.demand_avg_mshr_miss_latency::total 73682.581797                       # average overall mshr miss latency
system.l2.overall_avg_mshr_miss_latency::.cpu.inst 67999.034749                       # average overall mshr miss latency
system.l2.overall_avg_mshr_miss_latency::.cpu.data 73759.825786                       # average overall mshr miss latency
system.l2.overall_avg_mshr_miss_latency::total 73682.581797                       # average overall mshr miss latency
system.l2.replacements                           5877                       # number of replacements
system.l2.WritebackDirty_hits::.writebacks        37014                       # number of WritebackDirty hits
system.l2.WritebackDirty_hits::total            37014                       # number of WritebackDirty hits
system.l2.WritebackDirty_accesses::.writebacks        37014                       # number of WritebackDirty accesses(hits+misses)
system.l2.WritebackDirty_accesses::total        37014                       # number of WritebackDirty accesses(hits+misses)
system.l2.WritebackClean_hits::.writebacks       660652                       # number of WritebackClean hits
system.l2.WritebackClean_hits::total           660652                       # number of WritebackClean hits
system.l2.WritebackClean_accesses::.writebacks       660652                       # number of WritebackClean accesses(hits+misses)
system.l2.WritebackClean_accesses::total       660652                       # number of WritebackClean accesses(hits+misses)
system.l2.ReadExReq_hits::.cpu.data                 3                       # number of ReadExReq hits
system.l2.ReadExReq_hits::total                     3                       # number of ReadExReq hits
system.l2.ReadExReq_misses::.cpu.data           33253                       # number of ReadExReq misses
system.l2.ReadExReq_misses::total               33253                       # number of ReadExReq misses
system.l2.ReadExReq_miss_latency::.cpu.data   2802817500                       # number of ReadExReq miss cycles
system.l2.ReadExReq_miss_latency::total    2802817500                       # number of ReadExReq miss cycles
system.l2.ReadExReq_accesses::.cpu.data         33256                       # number of ReadExReq accesses(hits+misses)
system.l2.ReadExReq_accesses::total             33256                       # number of ReadExReq accesses(hits+misses)
system.l2.ReadExReq_miss_rate::.cpu.data     0.999910                       # miss rate for ReadExReq accesses
system.l2.ReadExReq_miss_rate::total         0.999910                       # miss rate for ReadExReq accesses
system.l2.ReadExReq_avg_miss_latency::.cpu.data 84287.658256                       # average ReadExReq miss latency
system.l2.ReadExReq_avg_miss_latency::total 84287.658256                       # average ReadExReq miss latency
system.l2.ReadExReq_mshr_misses::.cpu.data        33253                       # number of ReadExReq MSHR misses
system.l2.ReadExReq_mshr_misses::total          33253                       # number of ReadExReq MSHR misses
system.l2.ReadExReq_mshr_miss_latency::.cpu.data   2470287500                       # number of ReadExReq MSHR miss cycles
system.l2.ReadExReq_mshr_miss_latency::total   2470287500                       # number of ReadExReq MSHR miss cycles
system.l2.ReadExReq_mshr_miss_rate::.cpu.data     0.999910                       # mshr miss rate for ReadExReq accesses
system.l2.ReadExReq_mshr_miss_rate::total     0.999910                       # mshr miss rate for ReadExReq accesses
system.l2.ReadExReq_avg_mshr_miss_latency::.cpu.data 74287.658256                       # average ReadExReq mshr miss latency
system.l2.ReadExReq_avg_mshr_miss_latency::total 74287.658256                       # average ReadExReq mshr miss latency
system.l2.ReadCleanReq_hits::.cpu.inst         660200                       # number of ReadCleanReq hits
system.l2.ReadCleanReq_hits::total             660200                       # number of ReadCleanReq hits
system.l2.ReadCleanReq_misses::.cpu.inst          518                       # number of ReadCleanReq misses
system.l2.ReadCleanReq_misses::total              518                       # number of ReadCleanReq misses
system.l2.ReadCleanReq_miss_latency::.cpu.inst     40403500                       # number of ReadCleanReq miss cycles
system.l2.ReadCleanReq_miss_latency::total     40403500                       # number of ReadCleanReq miss cycles
system.l2.ReadCleanReq_accesses::.cpu.inst       660718                       # number of ReadCleanReq accesses(hits+misses)
system.l2.ReadCleanReq_accesses::total         660718                       # number of ReadCleanReq accesses(hits+misses)
system.l2.ReadCleanReq_miss_rate::.cpu.inst     0.000784                       # miss rate for ReadCleanReq accesses
system.l2.ReadCleanReq_miss_rate::total      0.000784                       # miss rate for ReadCleanReq accesses
system.l2.ReadCleanReq_avg_miss_latency::.cpu.inst 77999.034749                       # average ReadCleanReq miss latency
system.l2.ReadCleanReq_avg_miss_latency::total 77999.034749                       # average ReadCleanReq miss latency
system.l2.ReadCleanReq_mshr_misses::.cpu.inst          518                       # number of ReadCleanReq MSHR misses
system.l2.ReadCleanReq_mshr_misses::total          518                       # number of ReadCleanReq MSHR misses
system.l2.ReadCleanReq_mshr_miss_latency::.cpu.inst     35223500                       # number of ReadCleanReq MSHR miss cycles
system.l2.ReadCleanReq_mshr_miss_latency::total     35223500                       # number of ReadCleanReq MSHR miss cycles
system.l2.ReadCleanReq_mshr_miss_rate::.cpu.inst     0.000784                       # mshr miss rate for ReadCleanReq accesses
[...]
system.cpu.dcache.demand_accesses::total      3435069                       # number of demand (read+write) accesses
system.cpu.dcache.overall_accesses::.cpu.data      3441886                       # number of overall (read+write) accesses
system.cpu.dcache.overall_accesses::total      3441886                       # number of overall (read+write) accesses
system.cpu.dcache.demand_miss_rate::.cpu.data     0.021916                       # miss rate for demand accesses
system.cpu.dcache.demand_miss_rate::total     0.021916                       # miss rate for demand accesses
system.cpu.dcache.overall_miss_rate::.cpu.data     0.021898                       # miss rate for overall accesses
system.cpu.dcache.overall_miss_rate::total     0.021898                       # miss rate for overall accesses
system.cpu.dcache.demand_avg_miss_latency::.cpu.data 71640.179921                       # average overall miss latency
system.cpu.dcache.demand_avg_miss_latency::total 71640.179921                       # average overall miss latency
system.cpu.dcache.overall_avg_miss_latency::.cpu.data 71557.485273                       # average overall miss latency
system.cpu.dcache.overall_avg_miss_latency::total 71557.485273                       # average overall miss latency
system.cpu.dcache.blocked_cycles::no_mshrs       919448                       # number of cycles access was blocked
system.cpu.dcache.blocked_cycles::no_targets            0                       # number of cycles access was blocked
system.cpu.dcache.blocked::no_mshrs             13305                       # number of cycles access was blocked
system.cpu.dcache.blocked::no_targets               0                       # number of cycles access was blocked
system.cpu.dcache.avg_blocked_cycles::no_mshrs    69.105449                       # average number of cycles each access was blocked
system.cpu.dcache.avg_blocked_cycles::no_targets          nan                       # average number of cycles each access was blocked
system.cpu.dcache.writebacks::.writebacks        37014                       # number of writebacks
system.cpu.dcache.writebacks::total             37014                       # number of writebacks
system.cpu.dcache.demand_mshr_hits::.cpu.data        35936                       # number of demand (read+write) MSHR hits
system.cpu.dcache.demand_mshr_hits::total        35936                       # number of demand (read+write) MSHR hits
system.cpu.dcache.overall_mshr_hits::.cpu.data        35936                       # number of overall MSHR hits
system.cpu.dcache.overall_mshr_hits::total        35936                       # number of overall MSHR hits
system.cpu.dcache.demand_mshr_misses::.cpu.data        39347                       # number of demand (read+write) MSHR misses
system.cpu.dcache.demand_mshr_misses::total        39347                       # number of demand (read+write) MSHR misses
system.cpu.dcache.overall_mshr_misses::.cpu.data        39349                       # number of overall MSHR misses
system.cpu.dcache.overall_mshr_misses::total        39349                       # number of overall MSHR misses
system.cpu.dcache.demand_mshr_miss_latency::.cpu.data   3281219622                       # number of demand (read+write) MSHR miss cycles
system.cpu.dcache.demand_mshr_miss_latency::total   3281219622                       # number of demand (read+write) MSHR miss cycles
system.cpu.dcache.overall_mshr_miss_latency::.cpu.data   3281404122                       # number of overall MSHR miss cycles
system.cpu.dcache.overall_mshr_miss_latency::total   3281404122                       # number of overall MSHR miss cycles
system.cpu.dcache.demand_mshr_miss_rate::.cpu.data     0.011455                       # mshr miss rate for demand accesses
system.cpu.dcache.demand_mshr_miss_rate::total     0.011455                       # mshr miss rate for demand accesses
system.cpu.dcache.overall_mshr_miss_rate::.cpu.data     0.011432                       # mshr miss rate for overall accesses
system.cpu.dcache.overall_mshr_miss_rate::total     0.011432                       # mshr miss rate for overall accesses
system.cpu.dcache.demand_avg_mshr_miss_latency::.cpu.data 83391.862709                       # average overall mshr miss latency
system.cpu.dcache.demand_avg_mshr_miss_latency::total 83391.862709                       # average overall mshr miss latency
system.cpu.dcache.overall_avg_mshr_miss_latency::.cpu.data 83392.312943                       # average overall mshr miss latency
system.cpu.dcache.overall_avg_mshr_miss_latency::total 83392.312943                       # average overall mshr miss latency
system.cpu.dcache.replacements                  38326                       # number of replacements
system.cpu.dcache.ReadReq_hits::.cpu.data      1630725                       # number of ReadReq hits
system.cpu.dcache.ReadReq_hits::total         1630725                       # number of ReadReq hits
system.cpu.dcache.ReadReq_misses::.cpu.data        19188                       # number of ReadReq misses
system.cpu.dcache.ReadReq_misses::total         19188                       # number of ReadReq misses
system.cpu.dcache.ReadReq_miss_latency::.cpu.data   1029141000                       # number of ReadReq miss cycles
system.cpu.dcache.ReadReq_miss_latency::total   1029141000                       # number of ReadReq miss cycles
system.cpu.dcache.ReadReq_accesses::.cpu.data      1649913                       # number of ReadReq accesses(hits+misses)
system.cpu.dcache.ReadReq_accesses::total      1649913                       # number of ReadReq accesses(hits+misses)
system.cpu.dcache.ReadReq_miss_rate::.cpu.data     0.011630                       # miss rate for ReadReq accesses
system.cpu.dcache.ReadReq_miss_rate::total     0.011630                       # miss rate for ReadReq accesses
system.cpu.dcache.ReadReq_avg_miss_latency::.cpu.data 53634.615385                       # average ReadReq miss latency
system.cpu.dcache.ReadReq_avg_miss_latency::total 53634.615385                       # average ReadReq miss latency
system.cpu.dcache.ReadReq_mshr_hits::.cpu.data        13054                       # number of ReadReq MSHR hits
system.cpu.dcache.ReadReq_mshr_hits::total        13054                       # number of ReadReq MSHR hits
system.cpu.dcache.ReadReq_mshr_misses::.cpu.data         6134                       # number of ReadReq MSHR misses
system.cpu.dcache.ReadReq_mshr_misses::total         6134                       # number of ReadReq MSHR misses
system.cpu.dcache.ReadReq_mshr_miss_latency::.cpu.data    419205500                       # number of ReadReq MSHR miss cycles
system.cpu.dcache.ReadReq_mshr_miss_latency::total    419205500                       # number of ReadReq MSHR miss cycles
system.cpu.dcache.ReadReq_mshr_miss_rate::.cpu.data     0.003718                       # mshr miss rate for ReadReq accesses
system.cpu.dcache.ReadReq_mshr_miss_rate::total     0.003718                       # mshr miss rate for ReadReq accesses
system.cpu.dcache.ReadReq_avg_mshr_miss_latency::.cpu.data 68341.294425                       # average ReadReq mshr miss latency
system.cpu.dcache.ReadReq_avg_mshr_miss_latency::total 68341.294425                       # average ReadReq mshr miss latency
system.cpu.dcache.WriteReq_hits::.cpu.data      1729061                       # number of WriteReq hits
system.cpu.dcache.WriteReq_hits::total        1729061                       # number of WriteReq hits
system.cpu.dcache.WriteReq_misses::.cpu.data        56082                       # number of WriteReq misses
system.cpu.dcache.WriteReq_misses::total        56082                       # number of WriteReq misses
system.cpu.dcache.WriteReq_miss_latency::.cpu.data   4363733670                       # number of WriteReq miss cycles
system.cpu.dcache.WriteReq_miss_latency::total   4363733670                       # number of WriteReq miss cycles
system.cpu.dcache.WriteReq_accesses::.cpu.data      1785143                       # number of WriteReq accesses(hits+misses)
system.cpu.dcache.WriteReq_accesses::total      1785143                       # number of WriteReq accesses(hits+misses)
system.cpu.dcache.WriteReq_miss_rate::.cpu.data     0.031416                       # miss rate for WriteReq accesses
system.cpu.dcache.WriteReq_miss_rate::total     0.031416                       # miss rate for WriteReq accesses
system.cpu.dcache.WriteReq_avg_miss_latency::.cpu.data 77809.879641                       # average WriteReq miss latency
system.cpu.dcache.WriteReq_avg_miss_latency::total 77809.879641                       # average WriteReq miss latency
system.cpu.dcache.WriteReq_mshr_hits::.cpu.data        22882                       # number of WriteReq MSHR hits
system.cpu.dcache.WriteReq_mshr_hits::total        22882                       # number of WriteReq MSHR hits
system.cpu.dcache.WriteReq_mshr_misses::.cpu.data        33200                       # number of WriteReq MSHR misses
system.cpu.dcache.WriteReq_mshr_misses::total        33200                       # number of WriteReq MSHR misses
system.cpu.dcache.WriteReq_mshr_miss_latency::.cpu.data   2861614127                       # number of WriteReq MSHR miss cycles
system.cpu.dcache.WriteReq_mshr_miss_latency::total   2861614127                       # number of WriteReq MSHR miss cycles
system.cpu.dcache.WriteReq_mshr_miss_rate::.cpu.data     0.018598                       # mshr miss rate for WriteReq accesses
system.cpu.dcache.WriteReq_mshr_miss_rate::total     0.018598                       # mshr miss rate for WriteReq accesses
system.cpu.dcache.WriteReq_avg_mshr_miss_latency::.cpu.data 86193.196596                       # average WriteReq mshr miss latency
system.cpu.dcache.WriteReq_avg_mshr_miss_latency::total 86193.196596                       # average WriteReq mshr miss latency
system.cpu.dcache.SoftPFReq_hits::.cpu.data         6730                       # number of SoftPFReq hits
system.cpu.dcache.SoftPFReq_hits::total          6730                       # number of SoftPFReq hits
system.cpu.dcache.SoftPFReq_misses::.cpu.data           87                       # number of SoftPFReq misses
system.cpu.dcache.SoftPFReq_misses::total           87                       # number of SoftPFReq misses
system.cpu.dcache.SoftPFReq_accesses::.cpu.data         6817                       # number of SoftPFReq accesses(hits+misses)
system.cpu.dcache.SoftPFReq_accesses::total         6817                       # number of SoftPFReq accesses(hits+misses)
system.cpu.dcache.SoftPFReq_miss_rate::.cpu.data     0.012762                       # miss rate for SoftPFReq accesses
system.cpu.dcache.SoftPFReq_miss_rate::total     0.012762                       # miss rate for SoftPFReq accesses
system.cpu.dcache.SoftPFReq_mshr_misses::.cpu.data            2                       # number of SoftPFReq MSHR misses
system.cpu.dcache.SoftPFReq_mshr_misses::total            2                       # number of SoftPFReq MSHR misses
system.cpu.dcache.SoftPFReq_mshr_miss_latency::.cpu.data       184500                       # number of SoftPFReq MSHR miss cycles
system.cpu.dcache.SoftPFReq_mshr_miss_latency::total       184500                       # number of SoftPFReq MSHR miss cycles
system.cpu.dcache.SoftPFReq_mshr_miss_rate::.cpu.data     0.000293                       # mshr miss rate for SoftPFReq accesses
system.cpu.dcache.SoftPFReq_mshr_miss_rate::total     0.000293                       # mshr miss rate for SoftPFReq accesses
system.cpu.dcache.SoftPFReq_avg_mshr_miss_latency::.cpu.data        92250                       # average SoftPFReq mshr miss latency
system.cpu.dcache.SoftPFReq_avg_mshr_miss_latency::total        92250                       # average SoftPFReq mshr miss latency
system.cpu.dcache.WriteLineReq_misses::.cpu.data           13                       # number of WriteLineReq misses
system.cpu.dcache.WriteLineReq_misses::total           13                       # number of WriteLineReq misses
system.cpu.dcache.WriteLineReq_miss_latency::.cpu.data       412995                       # number of WriteLineReq miss cycles
system.cpu.dcache.WriteLineReq_miss_latency::total       412995                       # number of WriteLineReq miss cycles
system.cpu.dcache.WriteLineReq_accesses::.cpu.data           13                       # number of WriteLineReq accesses(hits+misses)
system.cpu.dcache.WriteLineReq_accesses::total           13                       # number of WriteLineReq accesses(hits+misses)
system.cpu.dcache.WriteLineReq_miss_rate::.cpu.data            1                       # miss rate for WriteLineReq accesses
system.cpu.dcache.WriteLineReq_miss_rate::total            1                       # miss rate for WriteLineReq accesses
system.cpu.dcache.WriteLineReq_avg_miss_latency::.cpu.data 31768.846154                       # average WriteLineReq miss latency
system.cpu.dcache.WriteLineReq_avg_miss_latency::total 31768.846154                       # average WriteLineReq miss latency
system.cpu.dcache.WriteLineReq_mshr_misses::.cpu.data           13                       # number of WriteLineReq MSHR misses
system.cpu.dcache.WriteLineReq_mshr_misses::total           13                       # number of WriteLineReq MSHR misses
system.cpu.dcache.WriteLineReq_mshr_miss_latency::.cpu.data       399995                       # number of WriteLineReq MSHR miss cycles
system.cpu.dcache.WriteLineReq_mshr_miss_latency::total       399995                       # number of WriteLineReq MSHR miss cycles
system.cpu.dcache.WriteLineReq_mshr_miss_rate::.cpu.data            1                       # mshr miss rate for WriteLineReq accesses
system.cpu.dcache.WriteLineReq_mshr_miss_rate::total            1                       # mshr miss rate for WriteLineReq accesses
system.cpu.dcache.WriteLineReq_avg_mshr_miss_latency::.cpu.data 30768.846154                       # average WriteLineReq mshr miss latency
system.cpu.dcache.WriteLineReq_avg_mshr_miss_latency::total 30768.846154                       # average WriteLineReq mshr miss latency
system.cpu.dcache.LoadLockedReq_hits::.cpu.data        12135                       # number of LoadLockedReq hits
system.cpu.dcache.LoadLockedReq_hits::total        12135                       # number of LoadLockedReq hits
system.cpu.dcache.LoadLockedReq_misses::.cpu.data            2                       # number of LoadLockedReq misses
system.cpu.dcache.LoadLockedReq_misses::total            2                       # number of LoadLockedReq misses
system.cpu.dcache.LoadLockedReq_miss_latency::.cpu.data       158500                       # number of LoadLockedReq miss cycles
system.cpu.dcache.LoadLockedReq_miss_latency::total       158500                       # number of LoadLockedReq miss cycles
system.cpu.dcache.LoadLockedReq_accesses::.cpu.data        12137                       # number of LoadLockedReq accesses(hits+misses)
system.cpu.dcache.LoadLockedReq_accesses::total        12137                       # number of LoadLockedReq accesses(hits+misses)
system.cpu.dcache.LoadLockedReq_miss_rate::.cpu.data     0.000165                       # miss rate for LoadLockedReq accesses
system.cpu.dcache.LoadLockedReq_miss_rate::total     0.000165                       # miss rate for LoadLockedReq accesses
system.cpu.dcache.LoadLockedReq_avg_miss_latency::.cpu.data        79250                       # average LoadLockedReq miss latency
system.cpu.dcache.LoadLockedReq_avg_miss_latency::total        79250                       # average LoadLockedReq miss latency
system.cpu.dcache.LoadLockedReq_mshr_hits::.cpu.data            1                       # number of LoadLockedReq MSHR hits
system.cpu.dcache.LoadLockedReq_mshr_hits::total            1                       # number of LoadLockedReq MSHR hits
system.cpu.dcache.LoadLockedReq_mshr_misses::.cpu.data            1                       # number of LoadLockedReq MSHR misses
system.cpu.dcache.LoadLockedReq_mshr_misses::total            1                       # number of LoadLockedReq MSHR misses
system.cpu.dcache.LoadLockedReq_mshr_miss_latency::.cpu.data        85000                       # number of LoadLockedReq MSHR miss cycles
system.cpu.dcache.LoadLockedReq_mshr_miss_latency::total        85000                       # number of LoadLockedReq MSHR miss cycles
system.cpu.dcache.LoadLockedReq_mshr_miss_rate::.cpu.data     0.000082                       # mshr miss rate for LoadLockedReq accesses
system.cpu.dcache.LoadLockedReq_mshr_miss_rate::total     0.000082                       # mshr miss rate for LoadLockedReq accesses
system.cpu.dcache.LoadLockedReq_avg_mshr_miss_latency::.cpu.data        85000                       # average LoadLockedReq mshr miss latency
system.cpu.dcache.LoadLockedReq_avg_mshr_miss_latency::total        85000                       # average LoadLockedReq mshr miss latency
system.cpu.dcache.StoreCondReq_hits::.cpu.data        12120                       # number of StoreCondReq hits
system.cpu.dcache.StoreCondReq_hits::total        12120                       # number of StoreCondReq hits
system.cpu.dcache.StoreCondReq_accesses::.cpu.data        12120                       # number of StoreCondReq accesses(hits+misses)
system.cpu.dcache.StoreCondReq_accesses::total        12120                       # number of StoreCondReq accesses(hits+misses)
system.cpu.dcache.power_state.pwrStateResidencyTicks::UNDEFINED  11326915000                       # Cumulative time (in ticks) in various power states
system.cpu.dcache.tags.tagsinuse          1011.532326                       # Cycle average of tags in use
system.cpu.dcache.tags.total_refs             3430121                       # Total number of references to valid blocks.
system.cpu.dcache.tags.sampled_refs             39350                       # Sample count of references to valid blocks.
system.cpu.dcache.tags.avg_refs             87.169530                       # Average number of references to valid blocks.
system.cpu.dcache.tags.warmup_cycle            176500                       # Cycle when the warmup percentage was hit.
system.cpu.dcache.tags.occ_blocks::.cpu.data  1011.532326                       # Average occupied blocks per requestor
system.cpu.dcache.tags.occ_percent::.cpu.data     0.987825                       # Average percentage of cache occupancy
system.cpu.dcache.tags.occ_percent::total     0.987825                       # Average percentage of cache occupancy
system.cpu.dcache.tags.occ_task_id_blocks::1024         1024                       # Occupied blocks per task id
system.cpu.dcache.tags.age_task_id_blocks_1024::0           31                       # Occupied blocks per task id
system.cpu.dcache.tags.age_task_id_blocks_1024::1          303                       # Occupied blocks per task id
system.cpu.dcache.tags.age_task_id_blocks_1024::2          649                       # Occupied blocks per task id
system.cpu.dcache.tags.age_task_id_blocks_1024::3            1                       # Occupied blocks per task id
system.cpu.dcache.tags.age_task_id_blocks_1024::4           40                       # Occupied blocks per task id
system.cpu.dcache.tags.occ_task_id_percent::1024            1                       # Percentage of cache occupancy per task id
system.cpu.dcache.tags.tag_accesses           6971636                       # Number of tag accesses
system.cpu.dcache.tags.data_accesses          6971636                       # Number of data accesses
system.cpu.dcache.tags.power_state.pwrStateResidencyTicks::UNDEFINED  11326915000                       # Cumulative time (in ticks) in various power states
system.cpu.power_state.pwrStateResidencyTicks::ON  11326915000                       # Cumulative time (in ticks) in various power states

---------- End Simulation Statistics   ----------
