
---------- Begin Simulation Statistics ----------
final_tick                                 2354573000                       # Number of ticks from beginning of simulation (restored from checkpoints and never reset)
host_inst_rate                                  66316                       # Simulator instruction rate (inst/s)
host_mem_usage                                 868836                       # Number of bytes of host memory used
host_op_rate                                    68565                       # Simulator op (including micro ops) rate (op/s)
host_seconds                                    15.08                       # Real time elapsed on the host
host_tick_rate                              156144004                       # Simulator tick rate (ticks/s)
sim_freq                                 1000000000000                       # Frequency of simulated ticks
sim_insts                                     1000000                       # Number of instructions simulated
sim_ops                                       1033929                       # Number of ops (including micro ops) simulated
sim_seconds                                  0.002355                       # Number of seconds simulated
sim_ticks                                  2354573000                       # Number of ticks simulated
system.cpu.branchPred.BTBCorrect                    0                       # Number of correct BTB predictions (this stat may not work properly.
system.cpu.branchPred.BTBHitPct             97.478622                       # BTB Hit Percentage
system.cpu.branchPred.BTBHits                   86407                       # Number of BTB hits
system.cpu.branchPred.BTBLookups                88642                       # Number of BTB lookups
system.cpu.branchPred.RASInCorrect                  4                       # Number of incorrect RAS predictions.
system.cpu.branchPred.condIncorrect              2343                       # Number of conditional branches incorrect
system.cpu.branchPred.condPredicted            114836                       # Number of conditional branches predicted
system.cpu.branchPred.indirectHits                620                       # Number of indirect target hits.
system.cpu.branchPred.indirectLookups            1630                       # Number of indirect predictor lookups.
system.cpu.branchPred.indirectMisses             1010                       # Number of indirect misses.
system.cpu.branchPred.lookups                  123542                       # Number of BP lookups
system.cpu.branchPred.usedRAS                    2914                       # Number of times the RAS was used to get a target.
system.cpu.branchPredindirectMispredicted          212                       # Number of mispredicted indirect branches.
system.cpu.cc_regfile_reads                    301022                       # number of cc regfile reads
system.cpu.cc_regfile_writes                   300723                       # number of cc regfile writes
system.cpu.commit.amos                              0                       # Number of atomic instructions committed
system.cpu.commit.branchMispredicts              1814                       # The number of times a branch was mispredicted
system.cpu.commit.branches                     102118                       # Number of branches committed
system.cpu.commit.bw_lim_events                 44563                       # number cycles where commit BW limit reached
system.cpu.commit.commitNonSpecStalls             162                       # The number of times commit has been forced to stall to communicate backwards
system.cpu.commit.commitSquashedInsts           82444                       # The number of squashed insts skipped by commit
system.cpu.commit.committedInsts              1000217                       # Number of instructions committed
system.cpu.commit.committedOps                1034146                       # Number of ops (including micro ops) committed
system.cpu.commit.committed_per_cycle::samples      4624517                       # Number of insts commited each cycle
system.cpu.commit.committed_per_cycle::mean     0.223622                       # Number of insts commited each cycle
system.cpu.commit.committed_per_cycle::stdev     1.060580                       # Number of insts commited each cycle
system.cpu.commit.committed_per_cycle::underflows            0      0.00%      0.00% # Number of insts commited each cycle
system.cpu.commit.committed_per_cycle::0      4312061     93.24%     93.24% # Number of insts commited each cycle
system.cpu.commit.committed_per_cycle::1       120406      2.60%     95.85% # Number of insts commited each cycle
system.cpu.commit.committed_per_cycle::2        36536      0.79%     96.64% # Number of insts commited each cycle
system.cpu.commit.committed_per_cycle::3        39861      0.86%     97.50% # Number of insts commited each cycle
system.cpu.commit.committed_per_cycle::4        26874      0.58%     98.08% # Number of insts commited each cycle
system.cpu.commit.committed_per_cycle::5        20351      0.44%     98.52% # Number of insts commited each cycle
system.cpu.commit.committed_per_cycle::6        11725      0.25%     98.77% # Number of insts commited each cycle
system.cpu.commit.committed_per_cycle::7        12140      0.26%     99.04% # Number of insts commited each cycle
system.cpu.commit.committed_per_cycle::8        44563      0.96%    100.00% # Number of insts commited each cycle
system.cpu.commit.committed_per_cycle::overflows            0      0.00%    100.00% # Number of insts commited each cycle
system.cpu.commit.committed_per_cycle::min_value            0                       # Number of insts commited each cycle
system.cpu.commit.committed_per_cycle::max_value            8                       # Number of insts commited each cycle
system.cpu.commit.committed_per_cycle::total      4624517                       # Number of insts commited each cycle
system.cpu.commit.fp_insts                          0                       # Number of committed floating point instructions.
system.cpu.commit.function_calls                 1944                       # Number of function calls committed.
system.cpu.commit.int_insts                    938116                       # Number of committed integer instructions.
system.cpu.commit.loads                         14759                       # Number of loads committed
system.cpu.commit.membars                         100                       # Number of memory barriers committed
system.cpu.commit.op_class_0::No_OpClass            4      0.00%      0.00% # Class of committed instruction
system.cpu.commit.op_class_0::IntAlu           396501     38.34%     38.34% # Class of committed instruction
system.cpu.commit.op_class_0::IntMult             174      0.02%     38.36% # Class of committed instruction
system.cpu.commit.op_class_0::IntDiv               22      0.00%     38.36% # Class of committed instruction
system.cpu.commit.op_class_0::FloatAdd              4      0.00%     38.36% # Class of committed instruction
system.cpu.commit.op_class_0::FloatCmp              0      0.00%     38.36% # Class of committed instruction
system.cpu.commit.op_class_0::FloatCvt           2813      0.27%     38.63% # Class of committed instruction
system.cpu.commit.op_class_0::FloatMult          2810      0.27%     38.90% # Class of committed instruction
system.cpu.commit.op_class_0::FloatMultAcc            0      0.00%     38.90% # Class of committed instruction
system.cpu.commit.op_class_0::FloatDiv              3      0.00%     38.90% # Class of committed instruction
system.cpu.commit.op_class_0::FloatMisc            15      0.00%     38.91% # Class of committed instruction
system.cpu.commit.op_class_0::FloatSqrt             0      0.00%     38.91% # Class of committed instruction
system.cpu.commit.op_class_0::SimdAdd              19      0.00%     38.91% # Class of committed instruction
system.cpu.commit.op_class_0::SimdAddAcc            0      0.00%     38.91% # Class of committed instruction
system.cpu.commit.op_class_0::SimdAlu              12      0.00%     38.91% # Class of committed instruction
system.cpu.commit.op_class_0::SimdCmp              16      0.00%     38.91% # Class of committed instruction
system.cpu.commit.op_class_0::SimdCvt               0      0.00%     38.91% # Class of committed instruction
system.cpu.commit.op_class_0::SimdMisc             52      0.01%     38.92% # Class of committed instruction
system.cpu.commit.op_class_0::SimdMult              0      0.00%     38.92% # Class of committed instruction
system.cpu.commit.op_class_0::SimdMultAcc            0      0.00%     38.92% # Class of committed instruction
system.cpu.commit.op_class_0::SimdShift             0      0.00%     38.92% # Class of committed instruction
system.cpu.commit.op_class_0::SimdShiftAcc            0      0.00%     38.92% # Class of committed instruction
system.cpu.commit.op_class_0::SimdDiv               0      0.00%     38.92% # Class of committed instruction
system.cpu.commit.op_class_0::SimdSqrt              0      0.00%     38.92% # Class of committed instruction
system.cpu.commit.op_class_0::SimdFloatAdd            0      0.00%     38.92% # Class of committed instruction
system.cpu.commit.op_class_0::SimdFloatAlu            0      0.00%     38.92% # Class of committed instruction
system.cpu.commit.op_class_0::SimdFloatCmp            0      0.00%     38.92% # Class of committed instruction
system.cpu.commit.op_class_0::SimdFloatCvt            0      0.00%     38.92% # Class of committed instruction
system.cpu.commit.op_class_0::SimdFloatDiv            0      0.00%     38.92% # Class of committed instruction
system.cpu.commit.op_class_0::SimdFloatMisc            0      0.00%     38.92% # Class of committed instruction
system.cpu.commit.op_class_0::SimdFloatMult            0      0.00%     38.92% # Class of committed instruction
system.cpu.commit.op_class_0::SimdFloatMultAcc            0      0.00%     38.92% # Class of committed instruction
system.cpu.commit.op_class_0::SimdFloatSqrt            0      0.00%     38.92% # Class of committed instruction
system.cpu.commit.op_class_0::SimdReduceAdd            0      0.00%     38.92% # Class of committed instruction
system.cpu.commit.op_class_0::SimdReduceAlu            0      0.00%     38.92% # Class of committed instruction
system.cpu.commit.op_class_0::SimdReduceCmp            0      0.00%     38.92% # Class of committed instruction
system.cpu.commit.op_class_0::SimdFloatReduceAdd            0      0.00%     38.92% # Class of committed instruction
system.cpu.commit.op_class_0::SimdFloatReduceCmp            0      0.00%     38.92% # Class of committed instruction
system.cpu.commit.op_class_0::SimdAes               0      0.00%     38.92% # Class of committed instruction
system.cpu.commit.op_class_0::SimdAesMix            0      0.00%     38.92% # Class of committed instruction
system.cpu.commit.op_class_0::SimdSha1Hash            0      0.00%     38.92% # Class of committed instruction
system.cpu.commit.op_class_0::SimdSha1Hash2            0      0.00%     38.92% # Class of committed instruction
system.cpu.commit.op_class_0::SimdSha256Hash            0      0.00%     38.92% # Class of committed instruction
system.cpu.commit.op_class_0::SimdSha256Hash2            0      0.00%     38.92% # Class of committed instruction
system.cpu.commit.op_class_0::SimdShaSigma2            0      0.00%     38.92% # Class of committed instruction
system.cpu.commit.op_class_0::SimdShaSigma3            0      0.00%     38.92% # Class of committed instruction
system.cpu.commit.op_class_0::SimdPredAlu            0      0.00%     38.92% # Class of committed instruction
system.cpu.commit.op_class_0::MemRead           14759      1.43%     40.34% # Class of committed instruction
system.cpu.commit.op_class_0::MemWrite         616942     59.66%    100.00% # Class of committed instruction
system.cpu.commit.op_class_0::FloatMemRead            0      0.00%    100.00% # Class of committed instruction
system.cpu.commit.op_class_0::FloatMemWrite            0      0.00%    100.00% # Class of committed instruction
system.cpu.commit.op_class_0::IprAccess             0      0.00%    100.00% # Class of committed instruction
system.cpu.commit.op_class_0::InstPrefetch            0      0.00%    100.00% # Class of committed instruction
system.cpu.commit.op_class_0::total           1034146                       # Class of committed instruction
system.cpu.commit.refs                         631701                       # Number of memory references committed
system.cpu.commit.swp_count                         0                       # Number of s/w prefetches committed
system.cpu.commit.vec_insts                     28978                       # Number of committed Vector instructions.
system.cpu.committedInsts                     1000000                       # Number of Instructions Simulated
system.cpu.committedOps                       1033929                       # Number of Ops (including micro ops) Simulated
system.cpu.cpi                               4.709149                       # CPI: Cycles Per Instruction
system.cpu.cpi_total                         4.709149                       # CPI: Total CPI of All Threads
system.cpu.decode.BlockedCycles               4377791                       # Number of cycles decode is blocked
system.cpu.decode.BranchMispred                   557                       # Number of times decode detected a branch misprediction
system.cpu.decode.BranchResolved                83318                       # Number of times decode resolved a branch
system.cpu.decode.DecodedInsts                1143174                       # Number of instructions handled by decode
system.cpu.decode.IdleCycles                    89561                       # Number of cycles decode is idle
system.cpu.decode.RunCycles                    126323                       # Number of cycles decode is running
system.cpu.decode.SquashCycles                   3075                       # Number of cycles decode is squashing
system.cpu.decode.SquashedInsts                  1922                       # Number of squashed instructions handled by decode
system.cpu.decode.UnblockCycles                 39684                       # Number of cycles decode is unblocking
system.cpu.dtb.accesses                             0                       # DTB accesses
system.cpu.dtb.align_faults                         0                       # Number of TLB faults due to alignment restrictions
system.cpu.dtb.domain_faults                        0                       # Number of TLB faults due to domain restrictions
system.cpu.dtb.flush_entries                        0                       # Number of entries that have been flushed from TLB
system.cpu.dtb.flush_tlb                            0                       # Number of times complete TLB was flushed
system.cpu.dtb.flush_tlb_asid                       0                       # Number of times TLB was flushed by ASID
system.cpu.dtb.flush_tlb_mva                        0                       # Number of times TLB was flushed by MVA
system.cpu.dtb.flush_tlb_mva_asid                   0                       # Number of times TLB was flushed by MVA & ASID
system.cpu.dtb.hits                                 0                       # DTB hits
system.cpu.dtb.inst_accesses                        0                       # ITB inst accesses
system.cpu.dtb.inst_hits                            0                       # ITB inst hits
system.cpu.dtb.inst_misses                          0                       # ITB inst misses
system.cpu.dtb.misses                               0                       # DTB misses
system.cpu.dtb.perms_faults                         0                       # Number of TLB faults due to permissions restrictions
system.cpu.dtb.prefetch_faults                      0                       # Number of TLB faults due to prefetch
system.cpu.dtb.read_accesses                        0                       # DTB read accesses
system.cpu.dtb.read_hits                            0                       # DTB read hits
system.cpu.dtb.read_misses                          0                       # DTB read misses
system.cpu.dtb.stage2_mmu.stage2_tlb.accesses            0                       # DTB accesses
system.cpu.dtb.stage2_mmu.stage2_tlb.align_faults            0                       # Number of TLB faults due to alignment restrictions
system.cpu.dtb.stage2_mmu.stage2_tlb.domain_faults            0                       # Number of TLB faults due to domain restrictions
system.cpu.dtb.stage2_mmu.stage2_tlb.flush_entries            0                       # Number of entries that have been flushed from TLB
system.cpu.dtb.stage2_mmu.stage2_tlb.flush_tlb            0                       # Number of times complete TLB was flushed
system.cpu.dtb.stage2_mmu.stage2_tlb.flush_tlb_asid            0                       # Number of times TLB was flushed by ASID
system.cpu.dtb.stage2_mmu.stage2_tlb.flush_tlb_mva            0                       # Number of times TLB was flushed by MVA
system.cpu.dtb.stage2_mmu.stage2_tlb.flush_tlb_mva_asid            0                       # Number of times TLB was flushed by MVA & ASID
system.cpu.dtb.stage2_mmu.stage2_tlb.hits            0                       # DTB hits
system.cpu.dtb.stage2_mmu.stage2_tlb.inst_accesses            0                       # ITB inst accesses
system.cpu.dtb.stage2_mmu.stage2_tlb.inst_hits            0                       # ITB inst hits
system.cpu.dtb.stage2_mmu.stage2_tlb.inst_misses            0                       # ITB inst misses
system.cpu.dtb.stage2_mmu.stage2_tlb.misses            0                       # DTB misses
system.cpu.dtb.stage2_mmu.stage2_tlb.perms_faults            0                       # Number of TLB faults due to permissions restrictions
system.cpu.dtb.stage2_mmu.stage2_tlb.prefetch_faults            0                       # Number of TLB faults due to prefetch
system.cpu.dtb.stage2_mmu.stage2_tlb.read_accesses            0                       # DTB read accesses
system.cpu.dtb.stage2_mmu.stage2_tlb.read_hits            0                       # DTB read hits
system.cpu.dtb.stage2_mmu.stage2_tlb.read_misses            0                       # DTB read misses
system.cpu.dtb.stage2_mmu.stage2_tlb.walker.walkRequestOrigin_Requested::Data            0                       # Table walker requests started/completed, data/inst
system.cpu.dtb.stage2_mmu.stage2_tlb.walker.walkRequestOrigin_Requested::Inst            0                       # Table walker requests started/completed, data/inst
system.cpu.dtb.stage2_mmu.stage2_tlb.walker.walkRequestOrigin_Requested::total            0                       # Table walker requests started/completed, data/inst
system.cpu.dtb.stage2_mmu.stage2_tlb.walker.walkRequestOrigin_Completed::Data            0                       # Table walker requests started/completed, data/inst
system.cpu.dtb.stage2_mmu.stage2_tlb.walker.walkRequestOrigin_Completed::Inst            0                       # Table walker requests started/completed, data/inst
system.cpu.dtb.stage2_mmu.stage2_tlb.walker.walkRequestOrigin_Completed::total            0                       # Table walker requests started/completed, data/inst
system.cpu.dtb.stage2_mmu.stage2_tlb.walker.walkRequestOrigin::total            0                       # Table walker requests started/completed, data/inst
system.cpu.dtb.stage2_mmu.stage2_tlb.walker.walks            0                       # Table walker walks requested
system.cpu.dtb.stage2_mmu.stage2_tlb.write_accesses            0                       # DTB write accesses
system.cpu.dtb.stage2_mmu.stage2_tlb.write_hits            0                       # DTB write hits
system.cpu.dtb.stage2_mmu.stage2_tlb.write_misses            0                       # DTB write misses
system.cpu.dtb.walker.walkRequestOrigin_Requested::Data            0                       # Table walker requests started/completed, data/inst
system.cpu.dtb.walker.walkRequestOrigin_Requested::Inst            0                       # Table walker requests started/completed, data/inst
system.cpu.dtb.walker.walkRequestOrigin_Requested::total            0                       # Table walker requests started/completed, data/inst
system.cpu.dtb.walker.walkRequestOrigin_Completed::Data            0                       # Table walker requests started/completed, data/inst
system.cpu.dtb.walker.walkRequestOrigin_Completed::Inst            0                       # Table walker requests started/completed, data/inst
system.cpu.dtb.walker.walkRequestOrigin_Completed::total            0                       # Table walker requests started/completed, data/inst
system.cpu.dtb.walker.walkRequestOrigin::total            0                       # Table walker requests started/completed, data/inst
system.cpu.dtb.walker.walks                         0                       # Table walker walks requested
system.cpu.dtb.write_accesses                       0                       # DTB write accesses
system.cpu.dtb.write_hits                           0                       # DTB write hits
system.cpu.dtb.write_misses                         0                       # DTB write misses
system.cpu.fetch.Branches                      123542                       # Number of branches that fetch encountered
system.cpu.fetch.CacheLines                    177599                       # Number of cache lines fetched
system.cpu.fetch.Cycles                       4414197                       # Number of cycles fetch has run and was not squashing or blocked
system.cpu.fetch.IcacheSquashes                  1535                       # Number of outstanding Icache misses that were squashed
system.cpu.fetch.IcacheWaitRetryStallCycles           54                       # Number of stall cycles due to full MSHR
system.cpu.fetch.Insts                        1160336                       # Number of instructions fetch has processed
system.cpu.fetch.MiscStallCycles                   33                       # Number of cycles fetch has spent waiting on interrupts, or bad addresses, or out of MSHRs
system.cpu.fetch.PendingTrapStallCycles            96                       # Number of stall cycles due to pending traps
system.cpu.fetch.SquashCycles                    7238                       # Number of cycles fetch has spent squashing
system.cpu.fetch.branchRate                  0.026234                       # Number of branch fetches per cycle
system.cpu.fetch.icacheStallCycles             218435                       # Number of cycles fetch is stalled on an Icache miss
system.cpu.fetch.predictedBranches              89941                       # Number of branches that fetch has predicted taken
system.cpu.fetch.rate                        0.246400                       # Number of inst fetches per cycle
system.cpu.fetch.rateDist::samples            4636434                       # Number of instructions fetched each cycle (Total)
system.cpu.fetch.rateDist::mean              0.259673                       # Number of instructions fetched each cycle (Total)
system.cpu.fetch.rateDist::stdev             1.286891                       # Number of instructions fetched each cycle (Total)
system.cpu.fetch.rateDist::underflows               0      0.00%      0.00% # Number of instructions fetched each cycle (Total)
system.cpu.fetch.rateDist::0                  4417672     95.28%     95.28% # Number of instructions fetched each cycle (Total)
system.cpu.fetch.rateDist::1                    10518      0.23%     95.51% # Number of instructions fetched each cycle (Total)
system.cpu.fetch.rateDist::2                     8656      0.19%     95.70% # Number of instructions fetched each cycle (Total)
system.cpu.fetch.rateDist::3                    64989      1.40%     97.10% # Number of instructions fetched each cycle (Total)
system.cpu.fetch.rateDist::4                     4876      0.11%     97.20% # Number of instructions fetched each cycle (Total)
system.cpu.fetch.rateDist::5                    17896      0.39%     97.59% # Number of instructions fetched each cycle (Total)
system.cpu.fetch.rateDist::6                     7604      0.16%     97.75% # Number of instructions fetched each cycle (Total)
system.cpu.fetch.rateDist::7                     7233      0.16%     97.91% # Number of instructions fetched each cycle (Total)
system.cpu.fetch.rateDist::8                    96990      2.09%    100.00% # Number of instructions fetched each cycle (Total)
system.cpu.fetch.rateDist::overflows                0      0.00%    100.00% # Number of instructions fetched each cycle (Total)
system.cpu.fetch.rateDist::min_value                0                       # Number of instructions fetched each cycle (Total)
system.cpu.fetch.rateDist::max_value                8                       # Number of instructions fetched each cycle (Total)
system.cpu.fetch.rateDist::total              4636434                       # Number of instructions fetched each cycle (Total)
system.cpu.icache.prefetcher.num_hwpf_issued         6666                       # number of hwpf issued
system.cpu.icache.prefetcher.pfBufferHit         2028                       # number of redundant prefetches already in prefetch queue
system.cpu.icache.prefetcher.pfIdentified         9558                       # number of prefetch candidates identified
system.cpu.icache.prefetcher.pfInCache              0                       # number of redundant prefetches already in cache/mshr dropped
system.cpu.icache.prefetcher.pfRemovedFull          325                       # number of prefetches dropped due to prefetch queue size
system.cpu.icache.prefetcher.pfSpanPage         93030                       # number of prefetches that crossed the page
system.cpu.idleCycles                           72715                       # Total number of cycles that the CPU has spent unscheduled due to idling
system.cpu.iew.branchMispredicts                 2141                       # Number of branch mispredicts detected at execute
system.cpu.iew.exec_branches                   110364                       # Number of branches executed
system.cpu.iew.exec_nop                           287                       # number of nop insts executed
system.cpu.iew.exec_rate                     0.236175                       # Inst execution rate
system.cpu.iew.exec_refs                       675761                       # number of memory reference insts executed
system.cpu.iew.exec_stores                     656487                       # Number of stores executed
system.cpu.iew.exec_swp                             0                       # number of swp insts executed
system.cpu.iew.iewBlockCycles                    9258                       # Number of cycles IEW is blocking
system.cpu.iew.iewDispLoadInsts                 19281                       # Number of dispatched load instructions
system.cpu.iew.iewDispNonSpecInsts                198                       # Number of dispatched non-speculative instructions
system.cpu.iew.iewDispSquashedInsts               551                       # Number of squashed instructions skipped by dispatch
system.cpu.iew.iewDispStoreInsts               658946                       # Number of dispatched store instructions
system.cpu.iew.iewDispatchedInsts             1121322                       # Number of instructions dispatched to IQ
system.cpu.iew.iewExecLoadInsts                 19274                       # Number of load instructions executed
system.cpu.iew.iewExecSquashedInsts              3099                       # Number of squashed instructions skipped in execute
system.cpu.iew.iewExecutedInsts               1112182                       # Number of executed instructions
system.cpu.iew.iewIQFullEvents                      7                       # Number of times the IQ has become full, causing a stall
system.cpu.iew.iewIdleCycles                        0                       # Number of cycles IEW is idle
system.cpu.iew.iewLSQFullEvents                744300                       # Number of times the LSQ has become full, causing a stall
system.cpu.iew.iewSquashCycles                   3075                       # Number of cycles IEW is squashing
system.cpu.iew.iewUnblockCycles                743452                       # Number of cycles IEW is unblocking
system.cpu.iew.lsq.thread0.blockedLoads             0                       # Number of blocked loads due to partial load-store forwarding
system.cpu.iew.lsq.thread0.cacheBlocked         46634                       # Number of times an access to memory failed due to the cache being blocked
system.cpu.iew.lsq.thread0.forwLoads              480                       # Number of loads that had data forwarded from stores
system.cpu.iew.lsq.thread0.ignoredResponses            6                       # Number of memory responses ignored because the instruction is squashed
system.cpu.iew.lsq.thread0.invAddrLoads             0                       # Number of loads ignored due to an invalid address
system.cpu.iew.lsq.thread0.invAddrSwpfs             0                       # Number of software prefetches ignored due to an invalid address
system.cpu.iew.lsq.thread0.memOrderViolation           32                       # Number of memory ordering violations
system.cpu.iew.lsq.thread0.rescheduledLoads          568                       # Number of loads that were rescheduled
system.cpu.iew.lsq.thread0.squashedLoads         4522                       # Number of loads squashed
system.cpu.iew.lsq.thread0.squashedStores        42004                       # Number of stores squashed
system.cpu.iew.memOrderViolationEvents             32                       # Number of memory order violations
system.cpu.iew.predictedNotTakenIncorrect         1761                       # Number of branches that were predicted not taken incorrectly
system.cpu.iew.predictedTakenIncorrect            380                       # Number of branches that were predicted taken incorrectly
system.cpu.iew.wb_consumers                    832240                       # num instructions consuming a value
system.cpu.iew.wb_count                       1089355                       # cumulative count of insts written-back
system.cpu.iew.wb_fanout                     0.337506                       # average fanout of values written-back
system.cpu.iew.wb_producers                    280886                       # num instructions producing a value
system.cpu.iew.wb_rate                       0.231327                       # insts written-back per cycle
system.cpu.iew.wb_sent                        1109913                       # cumulative count of insts sent to commit
system.cpu.int_regfile_reads                  2366287                       # number of integer regfile reads
system.cpu.int_regfile_writes                  342130                       # number of integer regfile writes
system.cpu.ipc                               0.212353                       # IPC: Instructions Per Cycle
system.cpu.ipc_total                         0.212353                       # IPC: Total IPC of All Threads
system.cpu.iq.FU_type_0::No_OpClass                19      0.00%      0.00% # Type of FU issued
system.cpu.iq.FU_type_0::IntAlu                431734     38.71%     38.71% # Type of FU issued
system.cpu.iq.FU_type_0::IntMult                  177      0.02%     38.73% # Type of FU issued
system.cpu.iq.FU_type_0::IntDiv                    27      0.00%     38.73% # Type of FU issued
system.cpu.iq.FU_type_0::FloatAdd                   5      0.00%     38.73% # Type of FU issued
system.cpu.iq.FU_type_0::FloatCmp                   0      0.00%     38.73% # Type of FU issued
system.cpu.iq.FU_type_0::FloatCvt                3046      0.27%     39.00% # Type of FU issued
system.cpu.iq.FU_type_0::FloatMult               3040      0.27%     39.28% # Type of FU issued
system.cpu.iq.FU_type_0::FloatMultAcc               0      0.00%     39.28% # Type of FU issued
system.cpu.iq.FU_type_0::FloatDiv                   3      0.00%     39.28% # Type of FU issued
system.cpu.iq.FU_type_0::FloatMisc                 21      0.00%     39.28% # Type of FU issued
system.cpu.iq.FU_type_0::FloatSqrt                  0      0.00%     39.28% # Type of FU issued
system.cpu.iq.FU_type_0::SimdAdd                   21      0.00%     39.28% # Type of FU issued
system.cpu.iq.FU_type_0::SimdAddAcc                 0      0.00%     39.28% # Type of FU issued
system.cpu.iq.FU_type_0::SimdAlu                   14      0.00%     39.28% # Type of FU issued
system.cpu.iq.FU_type_0::SimdCmp                   16      0.00%     39.28% # Type of FU issued
system.cpu.iq.FU_type_0::SimdCvt                    0      0.00%     39.28% # Type of FU issued
system.cpu.iq.FU_type_0::SimdMisc                  58      0.01%     39.29% # Type of FU issued
system.cpu.iq.FU_type_0::SimdMult                   0      0.00%     39.29% # Type of FU issued
system.cpu.iq.FU_type_0::SimdMultAcc                0      0.00%     39.29% # Type of FU issued
system.cpu.iq.FU_type_0::SimdShift                  0      0.00%     39.29% # Type of FU issued
system.cpu.iq.FU_type_0::SimdShiftAcc               0      0.00%     39.29% # Type of FU issued
system.cpu.iq.FU_type_0::SimdDiv                    0      0.00%     39.29% # Type of FU issued
system.cpu.iq.FU_type_0::SimdSqrt                   0      0.00%     39.29% # Type of FU issued
system.cpu.iq.FU_type_0::SimdFloatAdd               0      0.00%     39.29% # Type of FU issued
system.cpu.iq.FU_type_0::SimdFloatAlu               0      0.00%     39.29% # Type of FU issued
system.cpu.iq.FU_type_0::SimdFloatCmp               0      0.00%     39.29% # Type of FU issued
system.cpu.iq.FU_type_0::SimdFloatCvt               0      0.00%     39.29% # Type of FU issued
system.cpu.iq.FU_type_0::SimdFloatDiv               0      0.00%     39.29% # Type of FU issued
system.cpu.iq.FU_type_0::SimdFloatMisc              0      0.00%     39.29% # Type of FU issued
system.cpu.iq.FU_type_0::SimdFloatMult              0      0.00%     39.29% # Type of FU issued
system.cpu.iq.FU_type_0::SimdFloatMultAcc            0      0.00%     39.29% # Type of FU issued
system.cpu.iq.FU_type_0::SimdFloatSqrt              0      0.00%     39.29% # Type of FU issued
system.cpu.iq.FU_type_0::SimdReduceAdd              0      0.00%     39.29% # Type of FU issued
system.cpu.iq.FU_type_0::SimdReduceAlu              0      0.00%     39.29% # Type of FU issued
system.cpu.iq.FU_type_0::SimdReduceCmp              0      0.00%     39.29% # Type of FU issued
system.cpu.iq.FU_type_0::SimdFloatReduceAdd            0      0.00%     39.29% # Type of FU issued
system.cpu.iq.FU_type_0::SimdFloatReduceCmp            0      0.00%     39.29% # Type of FU issued
system.cpu.iq.FU_type_0::SimdAes                    0      0.00%     39.29% # Type of FU issued
system.cpu.iq.FU_type_0::SimdAesMix                 0      0.00%     39.29% # Type of FU issued
system.cpu.iq.FU_type_0::SimdSha1Hash               0      0.00%     39.29% # Type of FU issued
system.cpu.iq.FU_type_0::SimdSha1Hash2              0      0.00%     39.29% # Type of FU issued
system.cpu.iq.FU_type_0::SimdSha256Hash             0      0.00%     39.29% # Type of FU issued
system.cpu.iq.FU_type_0::SimdSha256Hash2            0      0.00%     39.29% # Type of FU issued
system.cpu.iq.FU_type_0::SimdShaSigma2              0      0.00%     39.29% # Type of FU issued
system.cpu.iq.FU_type_0::SimdShaSigma3              0      0.00%     39.29% # Type of FU issued
system.cpu.iq.FU_type_0::SimdPredAlu                0      0.00%     39.29% # Type of FU issued
system.cpu.iq.FU_type_0::MemRead                19834      1.78%     41.07% # Type of FU issued
system.cpu.iq.FU_type_0::MemWrite              657266     58.93%    100.00% # Type of FU issued
system.cpu.iq.FU_type_0::FloatMemRead               0      0.00%    100.00% # Type of FU issued
system.cpu.iq.FU_type_0::FloatMemWrite              0      0.00%    100.00% # Type of FU issued
system.cpu.iq.FU_type_0::IprAccess                  0      0.00%    100.00% # Type of FU issued
system.cpu.iq.FU_type_0::InstPrefetch               0      0.00%    100.00% # Type of FU issued
system.cpu.iq.FU_type_0::total                1115281                       # Type of FU issued
system.cpu.iq.fp_alu_accesses                       0                       # Number of floating point alu accesses
system.cpu.iq.fp_inst_queue_reads                   0                       # Number of floating instruction queue reads
system.cpu.iq.fp_inst_queue_wakeup_accesses            0                       # Number of floating instruction queue wakeup accesses
system.cpu.iq.fp_inst_queue_writes                  0                       # Number of floating instruction queue writes
system.cpu.iq.fu_busy_cnt                       89967                       # FU busy when requested
system.cpu.iq.fu_busy_rate                   0.080668                       # FU busy rate (busy events/executed inst)
system.cpu.iq.fu_full::No_OpClass                   0      0.00%      0.00% # attempts to use FU when none available
system.cpu.iq.fu_full::IntAlu                    1991      2.21%      2.21% # attempts to use FU when none available
system.cpu.iq.fu_full::IntMult                      0      0.00%      2.21% # attempts to use FU when none available
system.cpu.iq.fu_full::IntDiv                       0      0.00%      2.21% # attempts to use FU when none available
system.cpu.iq.fu_full::FloatAdd                     0      0.00%      2.21% # attempts to use FU when none available
system.cpu.iq.fu_full::FloatCmp                     0      0.00%      2.21% # attempts to use FU when none available
system.cpu.iq.fu_full::FloatCvt                     0      0.00%      2.21% # attempts to use FU when none available
system.cpu.iq.fu_full::FloatMult                    0      0.00%      2.21% # attempts to use FU when none available
system.cpu.iq.fu_full::FloatMultAcc                 0      0.00%      2.21% # attempts to use FU when none available
system.cpu.iq.fu_full::FloatDiv                    12      0.01%      2.23% # attempts to use FU when none available
system.cpu.iq.fu_full::FloatMisc                    0      0.00%      2.23% # attempts to use FU when none available
system.cpu.iq.fu_full::FloatSqrt                    0      0.00%      2.23% # attempts to use FU when none available
system.cpu.iq.fu_full::SimdAdd                      0      0.00%      2.23% # attempts to use FU when none available
system.cpu.iq.fu_full::SimdAddAcc                   0      0.00%      2.23% # attempts to use FU when none available
system.cpu.iq.fu_full::SimdAlu                      1      0.00%      2.23% # attempts to use FU when none available
system.cpu.iq.fu_full::SimdCmp                      2      0.00%      2.23% # attempts to use FU when none available
system.cpu.iq.fu_full::SimdCvt                      0      0.00%      2.23% # attempts to use FU when none available
system.cpu.iq.fu_full::SimdMisc                     0      0.00%      2.23% # attempts to use FU when none available
system.cpu.iq.fu_full::SimdMult                     0      0.00%      2.23% # attempts to use FU when none available
system.cpu.iq.fu_full::SimdMultAcc                  0      0.00%      2.23% # attempts to use FU when none available
system.cpu.iq.fu_full::SimdShift                    0      0.00%      2.23% # attempts to use FU when none available
system.cpu.iq.fu_full::SimdShiftAcc                 0      0.00%      2.23% # attempts to use FU when none available
system.cpu.iq.fu_full::SimdDiv                      0      0.00%      2.23% # attempts to use FU when none available
system.cpu.iq.fu_full::SimdSqrt                     0      0.00%      2.23% # attempts to use FU when none available
system.cpu.iq.fu_full::SimdFloatAdd                 0      0.00%      2.23% # attempts to use FU when none available
system.cpu.iq.fu_full::SimdFloatAlu                 0      0.00%      2.23% # attempts to use FU when none available
system.cpu.iq.fu_full::SimdFloatCmp                 0      0.00%      2.23% # attempts to use FU when none available
system.cpu.iq.fu_full::SimdFloatCvt                 0      0.00%      2.23% # attempts to use FU when none available
system.cpu.iq.fu_full::SimdFloatDiv                 0      0.00%      2.23% # attempts to use FU when none available
system.cpu.iq.fu_full::SimdFloatMisc                0      0.00%      2.23% # attempts to use FU when none available
system.cpu.iq.fu_full::SimdFloatMult                0      0.00%      2.23% # attempts to use FU when none available
system.cpu.iq.fu_full::SimdFloatMultAcc             0      0.00%      2.23% # attempts to use FU when none available
system.cpu.iq.fu_full::SimdFloatSqrt                0      0.00%      2.23% # attempts to use FU when none available
system.cpu.iq.fu_full::SimdReduceAdd                0      0.00%      2.23% # attempts to use FU when none available
system.cpu.iq.fu_full::SimdReduceAlu                0      0.00%      2.23% # attempts to use FU when none available
system.cpu.iq.fu_full::SimdReduceCmp                0      0.00%      2.23% # attempts to use FU when none available
system.cpu.iq.fu_full::SimdFloatReduceAdd            0      0.00%      2.23% # attempts to use FU when none available
system.cpu.iq.fu_full::SimdFloatReduceCmp            0      0.00%      2.23% # attempts to use FU when none available
system.cpu.iq.fu_full::SimdAes                      0      0.00%      2.23% # attempts to use FU when none available
system.cpu.iq.fu_full::SimdAesMix                   0      0.00%      2.23% # attempts to use FU when none available
system.cpu.iq.fu_full::SimdSha1Hash                 0      0.00%      2.23% # attempts to use FU when none available
system.cpu.iq.fu_full::SimdSha1Hash2                0      0.00%      2.23% # attempts to use FU when none available
system.cpu.iq.fu_full::SimdSha256Hash               0      0.00%      2.23% # attempts to use FU when none available
system.cpu.iq.fu_full::SimdSha256Hash2              0      0.00%      2.23% # attempts to use FU when none available
system.cpu.iq.fu_full::SimdShaSigma2                0      0.00%      2.23% # attempts to use FU when none available
system.cpu.iq.fu_full::SimdShaSigma3                0      0.00%      2.23% # attempts to use FU when none available
system.cpu.iq.fu_full::SimdPredAlu                  0      0.00%      2.23% # attempts to use FU when none available
system.cpu.iq.fu_full::MemRead                    383      0.43%      2.66% # attempts to use FU when none available
system.cpu.iq.fu_full::MemWrite                 87578     97.34%    100.00% # attempts to use FU when none available
system.cpu.iq.fu_full::FloatMemRead                 0      0.00%    100.00% # attempts to use FU when none available
system.cpu.iq.fu_full::FloatMemWrite                0      0.00%    100.00% # attempts to use FU when none available
system.cpu.iq.fu_full::IprAccess                    0      0.00%    100.00% # attempts to use FU when none available
system.cpu.iq.fu_full::InstPrefetch                 0      0.00%    100.00% # attempts to use FU when none available
system.cpu.iq.int_alu_accesses                1173732                       # Number of integer alu accesses
system.cpu.iq.int_inst_queue_reads            6894477                       # Number of integer instruction queue reads
system.cpu.iq.int_inst_queue_wakeup_accesses      1058722                       # Number of integer instruction queue wakeup accesses
system.cpu.iq.int_inst_queue_writes           1173808                       # Number of integer instruction queue writes
system.cpu.iq.iqInstsAdded                    1120837                       # Number of instructions added to the IQ (excludes non-spec)
system.cpu.iq.iqInstsIssued                   1115281                       # Number of instructions issued
system.cpu.iq.iqNonSpecInstsAdded                 198                       # Number of non-speculative instructions added to the IQ
system.cpu.iq.iqSquashedInstsExamined           87106                       # Number of squashed instructions iterated over during squash; mainly for profiling
system.cpu.iq.iqSquashedInstsIssued               527                       # Number of squashed instructions issued
system.cpu.iq.iqSquashedNonSpecRemoved             36                       # Number of squashed non-spec instructions that were removed
system.cpu.iq.iqSquashedOperandsExamined        76406                       # Number of squashed operands that are examined and possibly removed from graph
system.cpu.iq.issued_per_cycle::samples       4636434                       # Number of insts issued each cycle
system.cpu.iq.issued_per_cycle::mean         0.240547                       # Number of insts issued each cycle
system.cpu.iq.issued_per_cycle::stdev        1.023713                       # Number of insts issued each cycle
system.cpu.iq.issued_per_cycle::underflows            0      0.00%      0.00% # Number of insts issued each cycle
system.cpu.iq.issued_per_cycle::0             4298922     92.72%     92.72% # Number of insts issued each cycle
system.cpu.iq.issued_per_cycle::1              107191      2.31%     95.03% # Number of insts issued each cycle
system.cpu.iq.issued_per_cycle::2               44448      0.96%     95.99% # Number of insts issued each cycle
system.cpu.iq.issued_per_cycle::3               27863      0.60%     96.59% # Number of insts issued each cycle
system.cpu.iq.issued_per_cycle::4               36852      0.79%     97.39% # Number of insts issued each cycle
system.cpu.iq.issued_per_cycle::5               64328      1.39%     98.77% # Number of insts issued each cycle
system.cpu.iq.issued_per_cycle::6               38876      0.84%     99.61% # Number of insts issued each cycle
system.cpu.iq.issued_per_cycle::7               10331      0.22%     99.84% # Number of insts issued each cycle
system.cpu.iq.issued_per_cycle::8                7623      0.16%    100.00% # Number of insts issued each cycle
system.cpu.iq.issued_per_cycle::overflows            0      0.00%    100.00% # Number of insts issued each cycle
system.cpu.iq.issued_per_cycle::min_value            0                       # Number of insts issued each cycle
system.cpu.iq.issued_per_cycle::max_value            8                       # Number of insts issued each cycle
system.cpu.iq.issued_per_cycle::total         4636434                       # Number of insts issued each cycle
system.cpu.iq.rate                           0.236833                       # Inst issue rate
system.cpu.iq.vec_alu_accesses                  31497                       # Number of vector alu accesses
system.cpu.iq.vec_inst_queue_reads              63013                       # Number of vector instruction queue reads
system.cpu.iq.vec_inst_queue_wakeup_accesses        30633                       # Number of vector instruction queue wakeup accesses
system.cpu.iq.vec_inst_queue_writes             34364                       # Number of vector instruction queue writes
system.cpu.itb.accesses                             0                       # DTB accesses
system.cpu.itb.align_faults                         0                       # Number of TLB faults due to alignment restrictions
system.cpu.itb.domain_faults                        0                       # Number of TLB faults due to domain restrictions
system.cpu.itb.flush_entries                        0                       # Number of entries that have been flushed from TLB
system.cpu.itb.flush_tlb                            0                       # Number of times complete TLB was flushed
system.cpu.itb.flush_tlb_asid                       0                       # Number of times TLB was flushed by ASID
system.cpu.itb.flush_tlb_mva                        0                       # Number of times TLB was flushed by MVA
system.cpu.itb.flush_tlb_mva_asid                   0                       # Number of times TLB was flushed by MVA & ASID
system.cpu.itb.hits                                 0                       # DTB hits
system.cpu.itb.inst_accesses                        0                       # ITB inst accesses
system.cpu.itb.inst_hits                            0                       # ITB inst hits
system.cpu.itb.inst_misses                          0                       # ITB inst misses
system.cpu.itb.misses                               0                       # DTB misses
system.cpu.itb.perms_faults                         0                       # Number of TLB faults due to permissions restrictions
system.cpu.itb.prefetch_faults                      0                       # Number of TLB faults due to prefetch
system.cpu.itb.read_accesses                        0                       # DTB read accesses
system.cpu.itb.read_hits                            0                       # DTB read hits
system.cpu.itb.read_misses                          0                       # DTB read misses
system.cpu.itb.stage2_mmu.stage2_tlb.accesses            0                       # DTB accesses
system.cpu.itb.stage2_mmu.stage2_tlb.align_faults            0                       # Number of TLB faults due to alignment restrictions
system.cpu.itb.stage2_mmu.stage2_tlb.domain_faults            0                       # Number of TLB faults due to domain restrictions
system.cpu.itb.stage2_mmu.stage2_tlb.flush_entries            0                       # Number of entries that have been flushed from TLB
system.cpu.itb.stage2_mmu.stage2_tlb.flush_tlb            0                       # Number of times complete TLB was flushed
system.cpu.itb.stage2_mmu.stage2_tlb.flush_tlb_asid            0                       # Number of times TLB was flushed by ASID
system.cpu.itb.stage2_mmu.stage2_tlb.flush_tlb_mva            0                       # Number of times TLB was flushed by MVA
system.cpu.itb.stage2_mmu.stage2_tlb.flush_tlb_mva_asid            0                       # Number of times TLB was flushed by MVA & ASID
system.cpu.itb.stage2_mmu.stage2_tlb.hits            0                       # DTB hits
system.cpu.itb.stage2_mmu.stage2_tlb.inst_accesses            0                       # ITB inst accesses
system.cpu.itb.stage2_mmu.stage2_tlb.inst_hits            0                       # ITB inst hits
system.cpu.itb.stage2_mmu.stage2_tlb.inst_misses            0                       # ITB inst misses
system.cpu.itb.stage2_mmu.stage2_tlb.misses            0                       # DTB misses
system.cpu.itb.stage2_mmu.stage2_tlb.perms_faults            0                       # Number of TLB faults due to permissions restrictions
system.cpu.itb.stage2_mmu.stage2_tlb.prefetch_faults            0                       # Number of TLB faults due to prefetch
system.cpu.itb.stage2_mmu.stage2_tlb.read_accesses            0                       # DTB read accesses
system.cpu.itb.stage2_mmu.stage2_tlb.read_hits            0                       # DTB read hits
system.cpu.itb.stage2_mmu.stage2_tlb.read_misses            0                       # DTB read misses
system.cpu.itb.stage2_mmu.stage2_tlb.walker.walkRequestOrigin_Requested::Data            0                       # Table walker requests started/completed, data/inst
system.cpu.itb.stage2_mmu.stage2_tlb.walker.walkRequestOrigin_Requested::Inst            0                       # Table walker requests started/completed, data/inst
system.cpu.itb.stage2_mmu.stage2_tlb.walker.walkRequestOrigin_Requested::total            0                       # Table walker requests started/completed, data/inst
system.cpu.itb.stage2_mmu.stage2_tlb.walker.walkRequestOrigin_Completed::Data            0                       # Table walker requests started/completed, data/inst
system.cpu.itb.stage2_mmu.stage2_tlb.walker.walkRequestOrigin_Completed::Inst            0                       # Table walker requests started/completed, data/inst
system.cpu.itb.stage2_mmu.stage2_tlb.walker.walkRequestOrigin_Completed::total            0                       # Table walker requests started/completed, data/inst
system.cpu.itb.stage2_mmu.stage2_tlb.walker.walkRequestOrigin::total            0                       # Table walker requests started/completed, data/inst
system.cpu.itb.stage2_mmu.stage2_tlb.walker.walks            0                       # Table walker walks requested
system.cpu.itb.stage2_mmu.stage2_tlb.write_accesses            0                       # DTB write accesses
system.cpu.itb.stage2_mmu.stage2_tlb.write_hits            0                       # DTB write hits
system.cpu.itb.stage2_mmu.stage2_tlb.write_misses            0                       # DTB write misses
system.cpu.itb.walker.walkRequestOrigin_Requested::Data            0                       # Table walker requests started/completed, data/inst
system.cpu.itb.walker.walkRequestOrigin_Requested::Inst            0                       # Table walker requests started/completed, data/inst
system.cpu.itb.walker.walkRequestOrigin_Requested::total            0                       # Table walker requests started/completed, data/inst
system.cpu.itb.walker.walkRequestOrigin_Completed::Data            0                       # Table walker requests started/completed, data/inst
system.cpu.itb.walker.walkRequestOrigin_Completed::Inst            0                       # Table walker requests started/completed, data/inst
system.cpu.itb.walker.walkRequestOrigin_Completed::total            0                       # Table walker requests started/completed, data/inst
system.cpu.itb.walker.walkRequestOrigin::total            0                       # Table walker requests started/completed, data/inst
system.cpu.itb.walker.walks                         0                       # Table walker walks requested
system.cpu.itb.write_accesses                       0                       # DTB write accesses
system.cpu.itb.write_hits                           0                       # DTB write hits
system.cpu.itb.write_misses                         0                       # DTB write misses
system.cpu.memDep0.conflictingLoads               127                       # Number of conflicting loads.
system.cpu.memDep0.conflictingStores              617                       # Number of conflicting stores.
system.cpu.memDep0.insertedLoads                19281                       # Number of loads inserted to the mem dependence unit.
system.cpu.memDep0.insertedStores              658946                       # Number of stores inserted to the mem dependence unit.
system.cpu.misc_regfile_reads                 1095329                       # number of misc regfile reads
system.cpu.misc_regfile_writes                   6031                       # number of misc regfile writes
system.cpu.numCycles                          4709149                       # number of cpu cycles simulated
system.cpu.numWorkItemsCompleted                    0                       # number of work items this cpu completed
system.cpu.numWorkItemsStarted                      0                       # number of work items this cpu started
system.cpu.rename.BlockCycles                  752819                       # Number of cycles rename is blocking
system.cpu.rename.CommittedMaps                605959                       # Number of HB maps that are committed
system.cpu.rename.IQFullEvents                     40                       # Number of times rename has blocked due to IQ full
system.cpu.rename.IdleCycles                   110371                       # Number of cycles rename is idle
system.cpu.rename.LQFullEvents                      2                       # Number of times rename has blocked due to LQ full
system.cpu.rename.ROBFullEvents                     9                       # Number of times rename has blocked due to ROB full
system.cpu.rename.RenameLookups               2800659                       # Number of register rename lookups that rename has made
system.cpu.rename.RenamedInsts                1130138                       # Number of instructions processed by rename
system.cpu.rename.RenamedOperands              673593                       # Number of destination operands rename has renamed
system.cpu.rename.RunCycles                    144478                       # Number of cycles rename is running
system.cpu.rename.SQFullEvents                3600471                       # Number of times rename has blocked due to SQ full
system.cpu.rename.SquashCycles                   3075                       # Number of cycles rename is squashing
system.cpu.rename.UnblockCycles               3606979                       # Number of cycles rename is unblocking
system.cpu.rename.UndoneMaps                    67634                       # Number of HB maps that are undone due to squashing
system.cpu.rename.int_rename_lookups          2389360                       # Number of integer rename lookups
system.cpu.rename.serializeStallCycles          18712                       # count of cycles rename stalled for serializing inst
system.cpu.rename.serializingInsts                643                       # count of serializing insts renamed
system.cpu.rename.skidInsts                    284958                       # count of insts added to the skid buffer
system.cpu.rename.tempSerializingInsts            203                       # count of temporary serializing insts renamed
system.cpu.rename.vec_rename_lookups            31782                       # Number of vector rename lookups
system.cpu.rob.rob_reads                      5680359                       # The number of ROB reads
system.cpu.rob.rob_writes                     2245141                       # The number of ROB writes
system.cpu.timesIdled                            1395                       # Number of times that the entire CPU went into an idle state and unscheduled itself
system.cpu.vec_regfile_reads                    31020                       # number of vector regfile reads
system.cpu.vec_regfile_writes                    6175                       # number of vector regfile writes
system.cpu.workload.numSyscalls                    61                       # Number of system calls
system.membus.snoop_filter.hit_multi_requests            0                       # Number of requests hitting in the snoop filter with multiple (>1) holders of the requested data.
system.membus.snoop_filter.hit_multi_snoops            0                       # Number of snoops hitting in the snoop filter with multiple (>1) holders of the requested data.
system.membus.snoop_filter.hit_single_requests        41933                       # Number of requests hitting in the snoop filter with a single holder of the requested data.
system.membus.snoop_filter.hit_single_snoops            0                       # Number of snoops hitting in the snoop filter with a single holder of the requested data.
system.membus.snoop_filter.tot_requests        116891                       # Total number of requests made to the snoop filter.
system.membus.snoop_filter.tot_snoops               0                       # Total number of snoops made to the snoop filter.
system.tol2bus.snoop_filter.hit_multi_requests           13                       # Number of requests hitting in the snoop filter with multiple (>1) holders of the requested data.
system.tol2bus.snoop_filter.hit_multi_snoops            0                       # Number of snoops hitting in the snoop filter with multiple (>1) holders of the requested data.
system.tol2bus.snoop_filter.hit_single_requests        76894                       # Number of requests hitting in the snoop filter with a single holder of the requested data.
system.tol2bus.snoop_filter.hit_single_snoops          256                       # Number of snoops hitting in the snoop filter with a single holder of the requested data.
system.tol2bus.snoop_filter.tot_requests       155072                       # Total number of requests made to the snoop filter.
system.tol2bus.snoop_filter.tot_snoops            256                       # Total number of snoops made to the snoop filter.
system.membus.trans_dist::ReadResp                990                       # Transaction distribution
system.membus.trans_dist::WritebackDirty        41216                       # Transaction distribution
system.membus.trans_dist::CleanEvict              717                       # Transaction distribution
system.membus.trans_dist::ReadExReq             73861                       # Transaction distribution
system.membus.trans_dist::ReadExResp            73860                       # Transaction distribution
system.membus.trans_dist::ReadSharedReq           990                       # Transaction distribution
system.membus.trans_dist::InvalidateReq           107                       # Transaction distribution
system.membus.pkt_count_system.l2.mem_side::system.mem_ctrls.port       191741                       # Packet count per connected master and slave (bytes)
system.membus.pkt_count::total                 191741                       # Packet count per connected master and slave (bytes)
system.membus.pkt_size_system.l2.mem_side::system.mem_ctrls.port      7428224                       # Cumulative packet size per connected master and slave (bytes)
system.membus.pkt_size::total                 7428224                       # Cumulative packet size per connected master and slave (bytes)
system.membus.snoops                                0                       # Total snoops (count)
system.membus.snoopTraffic                          0                       # Total snoop traffic (bytes)
system.membus.snoop_fanout::samples             74958                       # Request fanout histogram
system.membus.snoop_fanout::mean                    0                       # Request fanout histogram
system.membus.snoop_fanout::stdev                   0                       # Request fanout histogram
system.membus.snoop_fanout::underflows              0      0.00%      0.00% # Request fanout histogram
system.membus.snoop_fanout::0                   74958    100.00%    100.00% # Request fanout histogram
system.membus.snoop_fanout::1                       0      0.00%    100.00% # Request fanout histogram
system.membus.snoop_fanout::overflows               0      0.00%    100.00% # Request fanout histogram
system.membus.snoop_fanout::min_value               0                       # Request fanout histogram
system.membus.snoop_fanout::max_value               0                       # Request fanout histogram
system.membus.snoop_fanout::total               74958                       # Request fanout histogram
system.membus.reqLayer0.occupancy           299333500                       # Layer occupancy (ticks)
system.membus.reqLayer0.utilization              12.7                       # Layer utilization (%)
system.membus.respLayer1.occupancy          389585750                       # Layer occupancy (ticks)
system.membus.respLayer1.utilization             16.5                       # Layer utilization (%)
system.membus.power_state.pwrStateResidencyTicks::UNDEFINED   2354573000                       # Cumulative time (in ticks) in various power states
system.tol2bus.trans_dist::ReadResp              4199                       # Transaction distribution
system.tol2bus.trans_dist::WritebackDirty       114310                       # Transaction distribution
system.tol2bus.trans_dist::WritebackClean         3700                       # Transaction distribution
system.tol2bus.trans_dist::CleanEvict            1073                       # Transaction distribution
system.tol2bus.trans_dist::ReadExReq            73872                       # Transaction distribution
system.tol2bus.trans_dist::ReadExResp           73868                       # Transaction distribution
system.tol2bus.trans_dist::ReadCleanReq          3956                       # Transaction distribution
system.tol2bus.trans_dist::ReadSharedReq          243                       # Transaction distribution
system.tol2bus.trans_dist::InvalidateReq          107                       # Transaction distribution
system.tol2bus.trans_dist::InvalidateResp          107                       # Transaction distribution
system.tol2bus.pkt_count_system.cpu.icache.mem_side::system.l2.cpu_side        11612                       # Packet count per connected master and slave (bytes)
system.tol2bus.pkt_count_system.cpu.dcache.mem_side::system.l2.cpu_side       221634                       # Packet count per connected master and slave (bytes)
system.tol2bus.pkt_count::total                233246                       # Packet count per connected master and slave (bytes)
system.tol2bus.pkt_size_system.cpu.icache.mem_side::system.l2.cpu_side       489984                       # Cumulative packet size per connected master and slave (bytes)
system.tol2bus.pkt_size_system.cpu.dcache.mem_side::system.l2.cpu_side      9421120                       # Cumulative packet size per connected master and slave (bytes)
system.tol2bus.pkt_size::total                9911104                       # Cumulative packet size per connected master and slave (bytes)
system.tol2bus.snoops                           42189                       # Total snoops (count)
system.tol2bus.snoopTraffic                   2637824                       # Total snoop traffic (bytes)
system.tol2bus.snoop_fanout::samples           120367                       # Request fanout histogram
system.tol2bus.snoop_fanout::mean            0.002235                       # Request fanout histogram
system.tol2bus.snoop_fanout::stdev           0.047221                       # Request fanout histogram
system.tol2bus.snoop_fanout::underflows             0      0.00%      0.00% # Request fanout histogram
system.tol2bus.snoop_fanout::0                 120098     99.78%     99.78% # Request fanout histogram
system.tol2bus.snoop_fanout::1                    269      0.22%    100.00% # Request fanout histogram
system.tol2bus.snoop_fanout::2                      0      0.00%    100.00% # Request fanout histogram
system.tol2bus.snoop_fanout::overflows              0      0.00%    100.00% # Request fanout histogram
system.tol2bus.snoop_fanout::min_value              0                       # Request fanout histogram
system.tol2bus.snoop_fanout::max_value              1                       # Request fanout histogram
system.tol2bus.snoop_fanout::total             120367                       # Request fanout histogram
system.tol2bus.reqLayer0.occupancy          154943552                       # Layer occupancy (ticks)
system.tol2bus.reqLayer0.utilization              6.6                       # Layer utilization (%)
system.tol2bus.respLayer1.occupancy         111220499                       # Layer occupancy (ticks)
system.tol2bus.respLayer1.utilization             4.7                       # Layer utilization (%)
system.tol2bus.respLayer0.occupancy           5934000                       # Layer occupancy (ticks)
system.tol2bus.respLayer0.utilization             0.3                       # Layer utilization (%)
system.tol2bus.power_state.pwrStateResidencyTicks::UNDEFINED   2354573000                       # Cumulative time (in ticks) in various power states
system.voltage_domain.voltage                       1                       # Voltage in Volts
system.clk_domain.clock                          1000                       # Clock period in ticks
system.l2.demand_hits::.cpu.inst                 1161                       # number of demand (read+write) hits
system.l2.demand_hits::.cpu.data                  134                       # number of demand (read+write) hits
system.l2.demand_hits::.cpu.icache.prefetcher         1922                       # number of demand (read+write) hits
system.l2.demand_hits::total                     3217                       # number of demand (read+write) hits
system.l2.overall_hits::.cpu.inst                1161                       # number of overall hits
system.l2.overall_hits::.cpu.data                 134                       # number of overall hits
system.l2.overall_hits::.cpu.icache.prefetcher         1922                       # number of overall hits
system.l2.overall_hits::total                    3217                       # number of overall hits
system.l2.demand_misses::.cpu.inst                873                       # number of demand (read+write) misses
system.l2.demand_misses::.cpu.data              73981                       # number of demand (read+write) misses
system.l2.demand_misses::total                  74854                       # number of demand (read+write) misses
system.l2.overall_misses::.cpu.inst               873                       # number of overall misses
system.l2.overall_misses::.cpu.data             73981                       # number of overall misses
system.l2.overall_misses::total                 74854                       # number of overall misses
system.l2.demand_miss_latency::.cpu.inst     68344000                       # number of demand (read+write) miss cycles
system.l2.demand_miss_latency::.cpu.data   7044622500                       # number of demand (read+write) miss cycles
system.l2.demand_miss_latency::total       7112966500                       # number of demand (read+write) miss cycles
system.l2.overall_miss_latency::.cpu.inst     68344000                       # number of overall miss cycles
system.l2.overall_miss_latency::.cpu.data   7044622500                       # number of overall miss cycles
system.l2.overall_miss_latency::total      7112966500                       # number of overall miss cycles
system.l2.demand_accesses::.cpu.inst             2034                       # number of demand (read+write) accesses
system.l2.demand_accesses::.cpu.data            74115                       # number of demand (read+write) accesses
system.l2.demand_accesses::.cpu.icache.prefetcher         1922                       # number of demand (read+write) accesses
system.l2.demand_accesses::total                78071                       # number of demand (read+write) accesses
system.l2.overall_accesses::.cpu.inst            2034                       # number of overall (read+write) accesses
system.l2.overall_accesses::.cpu.data           74115                       # number of overall (read+write) accesses
system.l2.overall_accesses::.cpu.icache.prefetcher         1922                       # number of overall (read+write) accesses
system.l2.overall_accesses::total               78071                       # number of overall (read+write) accesses
system.l2.demand_miss_rate::.cpu.inst        0.429204                       # miss rate for demand accesses
system.l2.demand_miss_rate::.cpu.data        0.998192                       # miss rate for demand accesses
system.l2.demand_miss_rate::total            0.958794                       # miss rate for demand accesses
system.l2.overall_miss_rate::.cpu.inst       0.429204                       # miss rate for overall accesses
system.l2.overall_miss_rate::.cpu.data       0.998192                       # miss rate for overall accesses
system.l2.overall_miss_rate::total           0.958794                       # miss rate for overall accesses
system.l2.demand_avg_miss_latency::.cpu.inst 78286.368843                       # average overall miss latency
system.l2.demand_avg_miss_latency::.cpu.data 95222.050256                       # average overall miss latency
system.l2.demand_avg_miss_latency::total 95024.534427                       # average overall miss latency
system.l2.overall_avg_miss_latency::.cpu.inst 78286.368843                       # average overall miss latency
system.l2.overall_avg_miss_latency::.cpu.data 95222.050256                       # average overall miss latency
system.l2.overall_avg_miss_latency::total 95024.534427                       # average overall miss latency
system.l2.blocked_cycles::no_mshrs                  0                       # number of cycles access was blocked
system.l2.blocked_cycles::no_targets                0                       # number of cycles access was blocked
system.l2.blocked::no_mshrs                         0                       # number of cycles access was blocked
system.l2.blocked::no_targets                       0                       # number of cycles access was blocked
system.l2.avg_blocked_cycles::no_mshrs            nan                       # average number of cycles each access was blocked
system.l2.avg_blocked_cycles::no_targets          nan                       # average number of cycles each access was blocked
system.l2.writebacks::.writebacks               41216                       # number of writebacks
system.l2.writebacks::total                     41216                       # number of writebacks
system.l2.demand_mshr_misses::.cpu.inst           873                       # number of demand (read+write) MSHR misses
system.l2.demand_mshr_misses::.cpu.data         73981                       # number of demand (read+write) MSHR misses
system.l2.demand_mshr_misses::total             74854                       # number of demand (read+write) MSHR misses
system.l2.overall_mshr_misses::.cpu.inst          873                       # number of overall MSHR misses
system.l2.overall_mshr_misses::.cpu.data        73981                       # number of overall MSHR misses
system.l2.overall_mshr_misses::total            74854                       # number of overall MSHR misses
system.l2.demand_mshr_miss_latency::.cpu.inst     59614000                       # number of demand (read+write) MSHR miss cycles
system.l2.demand_mshr_miss_latency::.cpu.data   6304852500                       # number of demand (read+write) MSHR miss cycles
system.l2.demand_mshr_miss_latency::total   6364466500                       # number of demand (read+write) MSHR miss cycles
system.l2.overall_mshr_miss_latency::.cpu.inst     59614000                       # number of overall MSHR miss cycles
system.l2.overall_mshr_miss_latency::.cpu.data   6304852500                       # number of overall MSHR miss cycles
system.l2.overall_mshr_miss_latency::total   6364466500                       # number of overall MSHR miss cycles
system.l2.demand_mshr_miss_rate::.cpu.inst     0.429204                       # mshr miss rate for demand accesses
system.l2.demand_mshr_miss_rate::.cpu.data     0.998192                       # mshr miss rate for demand accesses
system.l2.demand_mshr_miss_rate::total       0.958794                       # mshr miss rate for demand accesses
system.l2.overall_mshr_miss_rate::.cpu.inst     0.429204                       # mshr miss rate for overall accesses
system.l2.overall_mshr_miss_rate::.cpu.data     0.998192                       # mshr miss rate for overall accesses
system.l2.overall_mshr_miss_rate::total      0.958794                       # mshr miss rate for overall accesses
system.l2.demand_avg_mshr_miss_latency::.cpu.inst 68286.368843                       # average overall mshr miss latency
system.l2.demand_avg_mshr_miss_latency::.cpu.data 85222.590936                       # average overall mshr miss latency
system.l2.demand_avg_mshr_miss_latency::total 85025.068801                       # average overall mshr miss latency
system.l2.overall_avg_mshr_miss_latency::.cpu.inst 68286.368843                       # average overall mshr miss latency
system.l2.overall_avg_mshr_miss_latency::.cpu.data 85222.590936                       # average overall mshr miss latency
system.l2.overall_avg_mshr_miss_latency::total 85025.068801                       # average overall mshr miss latency
system.l2.replacements                          42189                       # number of replacements
system.l2.WritebackDirty_hits::.writebacks        73094                       # number of WritebackDirty hits
system.l2.WritebackDirty_hits::total            73094                       # number of WritebackDirty hits
system.l2.WritebackDirty_accesses::.writebacks        73094                       # number of WritebackDirty accesses(hits+misses)
system.l2.WritebackDirty_accesses::total        73094                       # number of WritebackDirty accesses(hits+misses)
system.l2.WritebackClean_hits::.writebacks         3688                       # number of WritebackClean hits
system.l2.WritebackClean_hits::total             3688                       # number of WritebackClean hits
system.l2.WritebackClean_accesses::.writebacks         3688                       # number of WritebackClean accesses(hits+misses)
system.l2.WritebackClean_accesses::total         3688                       # number of WritebackClean accesses(hits+misses)
system.l2.ReadExReq_hits::.cpu.data                 8                       # number of ReadExReq hits
system.l2.ReadExReq_hits::total                     8                       # number of ReadExReq hits
system.l2.ReadExReq_misses::.cpu.data           73864                       # number of ReadExReq misses
system.l2.ReadExReq_misses::total               73864                       # number of ReadExReq misses
system.l2.ReadExReq_miss_latency::.cpu.data   7034620000                       # number of ReadExReq miss cycles
system.l2.ReadExReq_miss_latency::total    7034620000                       # number of ReadExReq miss cycles
system.l2.ReadExReq_accesses::.cpu.data         73872                       # number of ReadExReq accesses(hits+misses)
system.l2.ReadExReq_accesses::total             73872                       # number of ReadExReq accesses(hits+misses)
system.l2.ReadExReq_miss_rate::.cpu.data     0.999892                       # miss rate for ReadExReq accesses
system.l2.ReadExReq_miss_rate::total         0.999892                       # miss rate for ReadExReq accesses
system.l2.ReadExReq_avg_miss_latency::.cpu.data 95237.463446                       # average ReadExReq miss latency
system.l2.ReadExReq_avg_miss_latency::total 95237.463446                       # average ReadExReq miss latency
system.l2.ReadExReq_mshr_misses::.cpu.data        73864                       # number of ReadExReq MSHR misses
system.l2.ReadExReq_mshr_misses::total          73864                       # number of ReadExReq MSHR misses
system.l2.ReadExReq_mshr_miss_latency::.cpu.data   6296020000                       # number of ReadExReq MSHR miss cycles
system.l2.ReadExReq_mshr_miss_latency::total   6296020000                       # number of ReadExReq MSHR miss cycles
system.l2.ReadExReq_mshr_miss_rate::.cpu.data     0.999892                       # mshr miss rate for ReadExReq accesses
system.l2.ReadExReq_mshr_miss_rate::total     0.999892                       # mshr miss rate for ReadExReq accesses
system.l2.ReadExReq_avg_mshr_miss_latency::.cpu.data 85238.004982                       # average ReadExReq mshr miss latency
system.l2.ReadExReq_avg_mshr_miss_latency::total 85238.004982                       # average ReadExReq mshr miss latency
system.l2.ReadCleanReq_hits::.cpu.inst           1161                       # number of ReadCleanReq hits
system.l2.ReadCleanReq_hits::.cpu.icache.prefetcher         1922                       # number of ReadCleanReq hits
system.l2.ReadCleanReq_hits::total               3083                       # number of ReadCleanReq hits
system.l2.ReadCleanReq_misses::.cpu.inst          873                       # number of ReadCleanReq misses
system.l2.ReadCleanReq_misses::total              873                       # number of ReadCleanReq misses
[...]
system.cpu.dcache.demand_miss_latency::total   9880488266                       # number of demand (read+write) miss cycles
system.cpu.dcache.overall_miss_latency::.cpu.data   9880488266                       # number of overall miss cycles
system.cpu.dcache.overall_miss_latency::total   9880488266                       # number of overall miss cycles
system.cpu.dcache.demand_accesses::.cpu.data       634065                       # number of demand (read+write) accesses
system.cpu.dcache.demand_accesses::total       634065                       # number of demand (read+write) accesses
system.cpu.dcache.overall_accesses::.cpu.data       634134                       # number of overall (read+write) accesses
system.cpu.dcache.overall_accesses::total       634134                       # number of overall (read+write) accesses
system.cpu.dcache.demand_miss_rate::.cpu.data     0.251577                       # miss rate for demand accesses
system.cpu.dcache.demand_miss_rate::total     0.251577                       # miss rate for demand accesses
system.cpu.dcache.overall_miss_rate::.cpu.data     0.251557                       # miss rate for overall accesses
system.cpu.dcache.overall_miss_rate::total     0.251557                       # miss rate for overall accesses
system.cpu.dcache.demand_avg_miss_latency::.cpu.data 61940.421437                       # average overall miss latency
system.cpu.dcache.demand_avg_miss_latency::total 61940.421437                       # average overall miss latency
system.cpu.dcache.overall_avg_miss_latency::.cpu.data 61938.479987                       # average overall miss latency
system.cpu.dcache.overall_avg_miss_latency::total 61938.479987                       # average overall miss latency
system.cpu.dcache.blocked_cycles::no_mshrs      3148094                       # number of cycles access was blocked
system.cpu.dcache.blocked_cycles::no_targets            0                       # number of cycles access was blocked
system.cpu.dcache.blocked::no_mshrs             47050                       # number of cycles access was blocked
system.cpu.dcache.blocked::no_targets               0                       # number of cycles access was blocked
system.cpu.dcache.avg_blocked_cycles::no_mshrs    66.909543                       # average number of cycles each access was blocked
system.cpu.dcache.avg_blocked_cycles::no_targets          nan                       # average number of cycles each access was blocked
system.cpu.dcache.writebacks::.writebacks        73094                       # number of writebacks
system.cpu.dcache.writebacks::total             73094                       # number of writebacks
system.cpu.dcache.demand_mshr_hits::.cpu.data        85300                       # number of demand (read+write) MSHR hits
system.cpu.dcache.demand_mshr_hits::total        85300                       # number of demand (read+write) MSHR hits
system.cpu.dcache.overall_mshr_hits::.cpu.data        85300                       # number of overall MSHR hits
system.cpu.dcache.overall_mshr_hits::total        85300                       # number of overall MSHR hits
system.cpu.dcache.demand_mshr_misses::.cpu.data        74216                       # number of demand (read+write) MSHR misses
system.cpu.dcache.demand_mshr_misses::total        74216                       # number of demand (read+write) MSHR misses
system.cpu.dcache.overall_mshr_misses::.cpu.data        74221                       # number of overall MSHR misses
system.cpu.dcache.overall_mshr_misses::total        74221                       # number of overall MSHR misses
system.cpu.dcache.demand_mshr_miss_latency::.cpu.data   7237061633                       # number of demand (read+write) MSHR miss cycles
system.cpu.dcache.demand_mshr_miss_latency::total   7237061633                       # number of demand (read+write) MSHR miss cycles
system.cpu.dcache.overall_mshr_miss_latency::.cpu.data   7237493133                       # number of overall MSHR miss cycles
system.cpu.dcache.overall_mshr_miss_latency::total   7237493133                       # number of overall MSHR miss cycles
system.cpu.dcache.demand_mshr_miss_rate::.cpu.data     0.117048                       # mshr miss rate for demand accesses
system.cpu.dcache.demand_mshr_miss_rate::total     0.117048                       # mshr miss rate for demand accesses
system.cpu.dcache.overall_mshr_miss_rate::.cpu.data     0.117043                       # mshr miss rate for overall accesses
system.cpu.dcache.overall_mshr_miss_rate::total     0.117043                       # mshr miss rate for overall accesses
system.cpu.dcache.demand_avg_mshr_miss_latency::.cpu.data 97513.496187                       # average overall mshr miss latency
system.cpu.dcache.demand_avg_mshr_miss_latency::total 97513.496187                       # average overall mshr miss latency
system.cpu.dcache.overall_avg_mshr_miss_latency::.cpu.data 97512.740774                       # average overall mshr miss latency
system.cpu.dcache.overall_avg_mshr_miss_latency::total 97512.740774                       # average overall mshr miss latency
system.cpu.dcache.replacements                  73194                       # number of replacements
system.cpu.dcache.ReadReq_hits::.cpu.data        16773                       # number of ReadReq hits
system.cpu.dcache.ReadReq_hits::total           16773                       # number of ReadReq hits
system.cpu.dcache.ReadReq_misses::.cpu.data          465                       # number of ReadReq misses
system.cpu.dcache.ReadReq_misses::total           465                       # number of ReadReq misses
system.cpu.dcache.ReadReq_miss_latency::.cpu.data     24265500                       # number of ReadReq miss cycles
system.cpu.dcache.ReadReq_miss_latency::total     24265500                       # number of ReadReq miss cycles
system.cpu.dcache.ReadReq_accesses::.cpu.data        17238                       # number of ReadReq accesses(hits+misses)
system.cpu.dcache.ReadReq_accesses::total        17238                       # number of ReadReq accesses(hits+misses)
system.cpu.dcache.ReadReq_miss_rate::.cpu.data     0.026975                       # miss rate for ReadReq accesses
system.cpu.dcache.ReadReq_miss_rate::total     0.026975                       # miss rate for ReadReq accesses
system.cpu.dcache.ReadReq_avg_miss_latency::.cpu.data 52183.870968                       # average ReadReq miss latency
system.cpu.dcache.ReadReq_avg_miss_latency::total 52183.870968                       # average ReadReq miss latency
system.cpu.dcache.ReadReq_mshr_hits::.cpu.data          228                       # number of ReadReq MSHR hits
system.cpu.dcache.ReadReq_mshr_hits::total          228                       # number of ReadReq MSHR hits
system.cpu.dcache.ReadReq_mshr_misses::.cpu.data          237                       # number of ReadReq MSHR misses
system.cpu.dcache.ReadReq_mshr_misses::total          237                       # number of ReadReq MSHR misses
system.cpu.dcache.ReadReq_mshr_miss_latency::.cpu.data     11254500                       # number of ReadReq MSHR miss cycles
system.cpu.dcache.ReadReq_mshr_miss_latency::total     11254500                       # number of ReadReq MSHR miss cycles
system.cpu.dcache.ReadReq_mshr_miss_rate::.cpu.data     0.013749                       # mshr miss rate for ReadReq accesses
system.cpu.dcache.ReadReq_mshr_miss_rate::total     0.013749                       # mshr miss rate for ReadReq accesses
system.cpu.dcache.ReadReq_avg_mshr_miss_latency::.cpu.data 47487.341772                       # average ReadReq mshr miss latency
system.cpu.dcache.ReadReq_avg_mshr_miss_latency::total 47487.341772                       # average ReadReq mshr miss latency
system.cpu.dcache.WriteReq_hits::.cpu.data       457756                       # number of WriteReq hits
system.cpu.dcache.WriteReq_hits::total         457756                       # number of WriteReq hits
system.cpu.dcache.WriteReq_misses::.cpu.data       158950                       # number of WriteReq misses
system.cpu.dcache.WriteReq_misses::total       158950                       # number of WriteReq misses
system.cpu.dcache.WriteReq_miss_latency::.cpu.data   9853017816                       # number of WriteReq miss cycles
system.cpu.dcache.WriteReq_miss_latency::total   9853017816                       # number of WriteReq miss cycles
system.cpu.dcache.WriteReq_accesses::.cpu.data       616706                       # number of WriteReq accesses(hits+misses)
system.cpu.dcache.WriteReq_accesses::total       616706                       # number of WriteReq accesses(hits+misses)
system.cpu.dcache.WriteReq_miss_rate::.cpu.data     0.257740                       # miss rate for WriteReq accesses
system.cpu.dcache.WriteReq_miss_rate::total     0.257740                       # miss rate for WriteReq accesses
system.cpu.dcache.WriteReq_avg_miss_latency::.cpu.data 61988.158641                       # average WriteReq miss latency
system.cpu.dcache.WriteReq_avg_miss_latency::total 61988.158641                       # average WriteReq miss latency
system.cpu.dcache.WriteReq_mshr_hits::.cpu.data        85072                       # number of WriteReq MSHR hits
system.cpu.dcache.WriteReq_mshr_hits::total        85072                       # number of WriteReq MSHR hits
system.cpu.dcache.WriteReq_mshr_misses::.cpu.data        73878                       # number of WriteReq MSHR misses
system.cpu.dcache.WriteReq_mshr_misses::total        73878                       # number of WriteReq MSHR misses
system.cpu.dcache.WriteReq_mshr_miss_latency::.cpu.data   7222703183                       # number of WriteReq MSHR miss cycles
system.cpu.dcache.WriteReq_mshr_miss_latency::total   7222703183                       # number of WriteReq MSHR miss cycles
system.cpu.dcache.WriteReq_mshr_miss_rate::.cpu.data     0.119795                       # mshr miss rate for WriteReq accesses
system.cpu.dcache.WriteReq_mshr_miss_rate::total     0.119795                       # mshr miss rate for WriteReq accesses
system.cpu.dcache.WriteReq_avg_mshr_miss_latency::.cpu.data 97765.277660                       # average WriteReq mshr miss latency
system.cpu.dcache.WriteReq_avg_mshr_miss_latency::total 97765.277660                       # average WriteReq mshr miss latency
system.cpu.dcache.SoftPFReq_hits::.cpu.data           64                       # number of SoftPFReq hits
system.cpu.dcache.SoftPFReq_hits::total            64                       # number of SoftPFReq hits
system.cpu.dcache.SoftPFReq_misses::.cpu.data            5                       # number of SoftPFReq misses
system.cpu.dcache.SoftPFReq_misses::total            5                       # number of SoftPFReq misses
system.cpu.dcache.SoftPFReq_accesses::.cpu.data           69                       # number of SoftPFReq accesses(hits+misses)
system.cpu.dcache.SoftPFReq_accesses::total           69                       # number of SoftPFReq accesses(hits+misses)
system.cpu.dcache.SoftPFReq_miss_rate::.cpu.data     0.072464                       # miss rate for SoftPFReq accesses
system.cpu.dcache.SoftPFReq_miss_rate::total     0.072464                       # miss rate for SoftPFReq accesses
system.cpu.dcache.SoftPFReq_mshr_misses::.cpu.data            5                       # number of SoftPFReq MSHR misses
system.cpu.dcache.SoftPFReq_mshr_misses::total            5                       # number of SoftPFReq MSHR misses
system.cpu.dcache.SoftPFReq_mshr_miss_latency::.cpu.data       431500                       # number of SoftPFReq MSHR miss cycles
system.cpu.dcache.SoftPFReq_mshr_miss_latency::total       431500                       # number of SoftPFReq MSHR miss cycles
system.cpu.dcache.SoftPFReq_mshr_miss_rate::.cpu.data     0.072464                       # mshr miss rate for SoftPFReq accesses
system.cpu.dcache.SoftPFReq_mshr_miss_rate::total     0.072464                       # mshr miss rate for SoftPFReq accesses
system.cpu.dcache.SoftPFReq_avg_mshr_miss_latency::.cpu.data        86300                       # average SoftPFReq mshr miss latency
system.cpu.dcache.SoftPFReq_avg_mshr_miss_latency::total        86300                       # average SoftPFReq mshr miss latency
system.cpu.dcache.WriteLineReq_hits::.cpu.data           20                       # number of WriteLineReq hits
system.cpu.dcache.WriteLineReq_hits::total           20                       # number of WriteLineReq hits
system.cpu.dcache.WriteLineReq_misses::.cpu.data          101                       # number of WriteLineReq misses
system.cpu.dcache.WriteLineReq_misses::total          101                       # number of WriteLineReq misses
system.cpu.dcache.WriteLineReq_miss_latency::.cpu.data      3204950                       # number of WriteLineReq miss cycles
system.cpu.dcache.WriteLineReq_miss_latency::total      3204950                       # number of WriteLineReq miss cycles
system.cpu.dcache.WriteLineReq_accesses::.cpu.data          121                       # number of WriteLineReq accesses(hits+misses)
system.cpu.dcache.WriteLineReq_accesses::total          121                       # number of WriteLineReq accesses(hits+misses)
system.cpu.dcache.WriteLineReq_miss_rate::.cpu.data     0.834711                       # miss rate for WriteLineReq accesses
system.cpu.dcache.WriteLineReq_miss_rate::total     0.834711                       # miss rate for WriteLineReq accesses
system.cpu.dcache.WriteLineReq_avg_miss_latency::.cpu.data 31732.178218                       # average WriteLineReq miss latency
system.cpu.dcache.WriteLineReq_avg_miss_latency::total 31732.178218                       # average WriteLineReq miss latency
system.cpu.dcache.WriteLineReq_mshr_misses::.cpu.data          101                       # number of WriteLineReq MSHR misses
system.cpu.dcache.WriteLineReq_mshr_misses::total          101                       # number of WriteLineReq MSHR misses
system.cpu.dcache.WriteLineReq_mshr_miss_latency::.cpu.data      3103950                       # number of WriteLineReq MSHR miss cycles
system.cpu.dcache.WriteLineReq_mshr_miss_latency::total      3103950                       # number of WriteLineReq MSHR miss cycles
system.cpu.dcache.WriteLineReq_mshr_miss_rate::.cpu.data     0.834711                       # mshr miss rate for WriteLineReq accesses
system.cpu.dcache.WriteLineReq_mshr_miss_rate::total     0.834711                       # mshr miss rate for WriteLineReq accesses
system.cpu.dcache.WriteLineReq_avg_mshr_miss_latency::.cpu.data 30732.178218                       # average WriteLineReq mshr miss latency
system.cpu.dcache.WriteLineReq_avg_mshr_miss_latency::total 30732.178218                       # average WriteLineReq mshr miss latency
system.cpu.dcache.LoadLockedReq_hits::.cpu.data          130                       # number of LoadLockedReq hits
system.cpu.dcache.LoadLockedReq_hits::total          130                       # number of LoadLockedReq hits
system.cpu.dcache.LoadLockedReq_misses::.cpu.data            1                       # number of LoadLockedReq misses
system.cpu.dcache.LoadLockedReq_misses::total            1                       # number of LoadLockedReq misses
system.cpu.dcache.LoadLockedReq_miss_latency::.cpu.data       111500                       # number of LoadLockedReq miss cycles
system.cpu.dcache.LoadLockedReq_miss_latency::total       111500                       # number of LoadLockedReq miss cycles
system.cpu.dcache.LoadLockedReq_accesses::.cpu.data          131                       # number of LoadLockedReq accesses(hits+misses)
system.cpu.dcache.LoadLockedReq_accesses::total          131                       # number of LoadLockedReq accesses(hits+misses)
system.cpu.dcache.LoadLockedReq_miss_rate::.cpu.data     0.007634                       # miss rate for LoadLockedReq accesses
system.cpu.dcache.LoadLockedReq_miss_rate::total     0.007634                       # miss rate for LoadLockedReq accesses
system.cpu.dcache.LoadLockedReq_avg_miss_latency::.cpu.data       111500                       # average LoadLockedReq miss latency
system.cpu.dcache.LoadLockedReq_avg_miss_latency::total       111500                       # average LoadLockedReq miss latency
system.cpu.dcache.LoadLockedReq_mshr_misses::.cpu.data            1                       # number of LoadLockedReq MSHR misses
system.cpu.dcache.LoadLockedReq_mshr_misses::total            1                       # number of LoadLockedReq MSHR misses
system.cpu.dcache.LoadLockedReq_mshr_miss_latency::.cpu.data       110500                       # number of LoadLockedReq MSHR miss cycles
system.cpu.dcache.LoadLockedReq_mshr_miss_latency::total       110500                       # number of LoadLockedReq MSHR miss cycles
system.cpu.dcache.LoadLockedReq_mshr_miss_rate::.cpu.data     0.007634                       # mshr miss rate for LoadLockedReq accesses
system.cpu.dcache.LoadLockedReq_mshr_miss_rate::total     0.007634                       # mshr miss rate for LoadLockedReq accesses
system.cpu.dcache.LoadLockedReq_avg_mshr_miss_latency::.cpu.data       110500                       # average LoadLockedReq mshr miss latency
system.cpu.dcache.LoadLockedReq_avg_mshr_miss_latency::total       110500                       # average LoadLockedReq mshr miss latency
system.cpu.dcache.StoreCondReq_hits::.cpu.data          100                       # number of StoreCondReq hits
system.cpu.dcache.StoreCondReq_hits::total          100                       # number of StoreCondReq hits
system.cpu.dcache.StoreCondReq_accesses::.cpu.data          100                       # number of StoreCondReq accesses(hits+misses)
system.cpu.dcache.StoreCondReq_accesses::total          100                       # number of StoreCondReq accesses(hits+misses)
system.cpu.dcache.power_state.pwrStateResidencyTicks::UNDEFINED   2354573000                       # Cumulative time (in ticks) in various power states
system.cpu.dcache.tags.tagsinuse           993.368940                       # Cycle average of tags in use
system.cpu.dcache.tags.total_refs              549061                       # Total number of references to valid blocks.
system.cpu.dcache.tags.sampled_refs             74218                       # Sample count of references to valid blocks.
system.cpu.dcache.tags.avg_refs              7.397949                       # Average number of references to valid blocks.
system.cpu.dcache.tags.warmup_cycle            176500                       # Cycle when the warmup percentage was hit.
system.cpu.dcache.tags.occ_blocks::.cpu.data   993.368940                       # Average occupied blocks per requestor
system.cpu.dcache.tags.occ_percent::.cpu.data     0.970087                       # Average percentage of cache occupancy
system.cpu.dcache.tags.occ_percent::total     0.970087                       # Average percentage of cache occupancy
system.cpu.dcache.tags.occ_task_id_blocks::1024         1024                       # Occupied blocks per task id
system.cpu.dcache.tags.age_task_id_blocks_1024::0          289                       # Occupied blocks per task id
system.cpu.dcache.tags.age_task_id_blocks_1024::1          735                       # Occupied blocks per task id
system.cpu.dcache.tags.occ_task_id_percent::1024            1                       # Percentage of cache occupancy per task id
system.cpu.dcache.tags.tag_accesses           1342948                       # Number of tag accesses
system.cpu.dcache.tags.data_accesses          1342948                       # Number of data accesses
system.cpu.dcache.tags.power_state.pwrStateResidencyTicks::UNDEFINED   2354573000                       # Cumulative time (in ticks) in various power states
system.cpu.power_state.pwrStateResidencyTicks::ON   2354573000                       # Cumulative time (in ticks) in various power states

---------- End Simulation Statistics   ----------
