
---------- Begin Simulation Statistics ----------
final_tick                                 2931704500                       # Number of ticks from beginning of simulation (restored from checkpoints and never reset)
host_inst_rate                                 243052                       # Simulator instruction rate (inst/s)
host_mem_usage                                 872988                       # Number of bytes of host memory used
host_op_rate                                   277576                       # Simulator op (including micro ops) rate (op/s)
host_seconds                                    39.57                       # Real time elapsed on the host
host_tick_rate                               74080057                       # Simulator tick rate (ticks/s)
sim_freq                                 1000000000000                       # Frequency of simulated ticks
sim_insts                                     9618678                       # Number of instructions simulated
sim_ops                                      10985031                       # Number of ops (including micro ops) simulated
sim_seconds                                  0.002932                       # Number of seconds simulated
sim_ticks                                  2931704500                       # Number of ticks simulated
system.cpu.branchPred.BTBCorrect                    0                       # Number of correct BTB predictions (this stat may not work properly.
system.cpu.branchPred.BTBHitPct             99.320639                       # BTB Hit Percentage
system.cpu.branchPred.BTBHits                 1125572                       # Number of BTB hits
system.cpu.branchPred.BTBLookups              1133271                       # Number of BTB lookups
system.cpu.branchPred.RASInCorrect                 23                       # Number of incorrect RAS predictions.
system.cpu.branchPred.condIncorrect             27438                       # Number of conditional branches incorrect
system.cpu.branchPred.condPredicted           1719322                       # Number of conditional branches predicted
system.cpu.branchPred.indirectHits              78453                       # Number of indirect target hits.
system.cpu.branchPred.indirectLookups           80395                       # Number of indirect predictor lookups.
system.cpu.branchPred.indirectMisses             1942                       # Number of indirect misses.
system.cpu.branchPred.lookups                 2624401                       # Number of BP lookups
system.cpu.branchPred.usedRAS                  347854                       # Number of times the RAS was used to get a target.
system.cpu.branchPredindirectMispredicted          649                       # Number of mispredicted indirect branches.
system.cpu.cc_regfile_reads                   4476265                       # number of cc regfile reads
system.cpu.cc_regfile_writes                  3678416                       # number of cc regfile writes
system.cpu.commit.amos                              0                       # Number of atomic instructions committed
system.cpu.commit.branchMispredicts             24604                       # The number of times a branch was mispredicted
system.cpu.commit.branches                    2418242                       # Number of branches committed
system.cpu.commit.bw_lim_events                567501                       # number cycles where commit BW limit reached
system.cpu.commit.commitNonSpecStalls             329                       # The number of times commit has been forced to stall to communicate backwards
system.cpu.commit.commitSquashedInsts          961777                       # The number of squashed insts skipped by commit
system.cpu.commit.committedInsts              9622808                       # Number of instructions committed
system.cpu.commit.committedOps               10989161                       # Number of ops (including micro ops) committed
system.cpu.commit.committed_per_cycle::samples      5525337                       # Number of insts commited each cycle
system.cpu.commit.committed_per_cycle::mean     1.988867                       # Number of insts commited each cycle
system.cpu.commit.committed_per_cycle::stdev     2.617183                       # Number of insts commited each cycle
system.cpu.commit.committed_per_cycle::underflows            0      0.00%      0.00% # Number of insts commited each cycle
system.cpu.commit.committed_per_cycle::0      2455687     44.44%     44.44% # Number of insts commited each cycle
system.cpu.commit.committed_per_cycle::1       899462     16.28%     60.72% # Number of insts commited each cycle
system.cpu.commit.committed_per_cycle::2       547687      9.91%     70.64% # Number of insts commited each cycle
system.cpu.commit.committed_per_cycle::3       403168      7.30%     77.93% # Number of insts commited each cycle
system.cpu.commit.committed_per_cycle::4       230507      4.17%     82.10% # Number of insts commited each cycle
system.cpu.commit.committed_per_cycle::5       237565      4.30%     86.40% # Number of insts commited each cycle
system.cpu.commit.committed_per_cycle::6       151360      2.74%     89.14% # Number of insts commited each cycle
system.cpu.commit.committed_per_cycle::7        32400      0.59%     89.73% # Number of insts commited each cycle
system.cpu.commit.committed_per_cycle::8       567501     10.27%    100.00% # Number of insts commited each cycle
system.cpu.commit.committed_per_cycle::overflows            0      0.00%    100.00% # Number of insts commited each cycle
system.cpu.commit.committed_per_cycle::min_value            0                       # Number of insts commited each cycle
system.cpu.commit.committed_per_cycle::max_value            8                       # Number of insts commited each cycle
system.cpu.commit.committed_per_cycle::total      5525337                       # Number of insts commited each cycle
system.cpu.commit.fp_insts                          0                       # Number of committed floating point instructions.
system.cpu.commit.function_calls               322766                       # Number of function calls committed.
system.cpu.commit.int_insts                   9549744                       # Number of committed integer instructions.
system.cpu.commit.loads                       1247692                       # Number of loads committed
system.cpu.commit.membars                         270                       # Number of memory barriers committed
system.cpu.commit.op_class_0::No_OpClass          589      0.01%      0.01% # Class of committed instruction
system.cpu.commit.op_class_0::IntAlu          8387352     76.32%     76.33% # Class of committed instruction
system.cpu.commit.op_class_0::IntMult           68608      0.62%     76.95% # Class of committed instruction
system.cpu.commit.op_class_0::IntDiv                9      0.00%     76.95% # Class of committed instruction
system.cpu.commit.op_class_0::FloatAdd           7468      0.07%     77.02% # Class of committed instruction
system.cpu.commit.op_class_0::FloatCmp           9555      0.09%     77.11% # Class of committed instruction
system.cpu.commit.op_class_0::FloatCvt          48762      0.44%     77.55% # Class of committed instruction
system.cpu.commit.op_class_0::FloatMult         43570      0.40%     77.95% # Class of committed instruction
system.cpu.commit.op_class_0::FloatMultAcc        20577      0.19%     78.14% # Class of committed instruction
system.cpu.commit.op_class_0::FloatDiv          20138      0.18%     78.32% # Class of committed instruction
system.cpu.commit.op_class_0::FloatMisc         29626      0.27%     78.59% # Class of committed instruction
system.cpu.commit.op_class_0::FloatSqrt          2058      0.02%     78.61% # Class of committed instruction
system.cpu.commit.op_class_0::SimdAdd            1298      0.01%     78.62% # Class of committed instruction
system.cpu.commit.op_class_0::SimdAddAcc            0      0.00%     78.62% # Class of committed instruction
system.cpu.commit.op_class_0::SimdAlu            3092      0.03%     78.65% # Class of committed instruction
system.cpu.commit.op_class_0::SimdCmp            2365      0.02%     78.67% # Class of committed instruction
system.cpu.commit.op_class_0::SimdCvt               5      0.00%     78.67% # Class of committed instruction
system.cpu.commit.op_class_0::SimdMisc           1936      0.02%     78.69% # Class of committed instruction
system.cpu.commit.op_class_0::SimdMult              0      0.00%     78.69% # Class of committed instruction
system.cpu.commit.op_class_0::SimdMultAcc            0      0.00%     78.69% # Class of committed instruction
system.cpu.commit.op_class_0::SimdShift             0      0.00%     78.69% # Class of committed instruction
system.cpu.commit.op_class_0::SimdShiftAcc            0      0.00%     78.69% # Class of committed instruction
system.cpu.commit.op_class_0::SimdDiv               0      0.00%     78.69% # Class of committed instruction
system.cpu.commit.op_class_0::SimdSqrt              0      0.00%     78.69% # Class of committed instruction
system.cpu.commit.op_class_0::SimdFloatAdd            0      0.00%     78.69% # Class of committed instruction
system.cpu.commit.op_class_0::SimdFloatAlu            0      0.00%     78.69% # Class of committed instruction
system.cpu.commit.op_class_0::SimdFloatCmp            0      0.00%     78.69% # Class of committed instruction
system.cpu.commit.op_class_0::SimdFloatCvt            0      0.00%     78.69% # Class of committed instruction
system.cpu.commit.op_class_0::SimdFloatDiv            0      0.00%     78.69% # Class of committed instruction
system.cpu.commit.op_class_0::SimdFloatMisc            0      0.00%     78.69% # Class of committed instruction
system.cpu.commit.op_class_0::SimdFloatMult            0      0.00%     78.69% # Class of committed instruction
system.cpu.commit.op_class_0::SimdFloatMultAcc            0      0.00%     78.69% # Class of committed instruction
system.cpu.commit.op_class_0::SimdFloatSqrt            0      0.00%     78.69% # Class of committed instruction
system.cpu.commit.op_class_0::SimdReduceAdd            0      0.00%     78.69% # Class of committed instruction
system.cpu.commit.op_class_0::SimdReduceAlu            0      0.00%     78.69% # Class of committed instruction
system.cpu.commit.op_class_0::SimdReduceCmp            0      0.00%     78.69% # Class of committed instruction
system.cpu.commit.op_class_0::SimdFloatReduceAdd            0      0.00%     78.69% # Class of committed instruction
system.cpu.commit.op_class_0::SimdFloatReduceCmp            0      0.00%     78.69% # Class of committed instruction
system.cpu.commit.op_class_0::SimdAes               0      0.00%     78.69% # Class of committed instruction
system.cpu.commit.op_class_0::SimdAesMix            0      0.00%     78.69% # Class of committed instruction
system.cpu.commit.op_class_0::SimdSha1Hash            0      0.00%     78.69% # Class of committed instruction
system.cpu.commit.op_class_0::SimdSha1Hash2            0      0.00%     78.69% # Class of committed instruction
system.cpu.commit.op_class_0::SimdSha256Hash            0      0.00%     78.69% # Class of committed instruction
system.cpu.commit.op_class_0::SimdSha256Hash2            0      0.00%     78.69% # Class of committed instruction
system.cpu.commit.op_class_0::SimdShaSigma2            0      0.00%     78.69% # Class of committed instruction
system.cpu.commit.op_class_0::SimdShaSigma3            0      0.00%     78.69% # Class of committed instruction
system.cpu.commit.op_class_0::SimdPredAlu            0      0.00%     78.69% # Class of committed instruction
system.cpu.commit.op_class_0::MemRead         1247692     11.35%     90.04% # Class of committed instruction
system.cpu.commit.op_class_0::MemWrite        1094461      9.96%    100.00% # Class of committed instruction
system.cpu.commit.op_class_0::FloatMemRead            0      0.00%    100.00% # Class of committed instruction
system.cpu.commit.op_class_0::FloatMemWrite            0      0.00%    100.00% # Class of committed instruction
system.cpu.commit.op_class_0::IprAccess             0      0.00%    100.00% # Class of committed instruction
system.cpu.commit.op_class_0::InstPrefetch            0      0.00%    100.00% # Class of committed instruction
system.cpu.commit.op_class_0::total          10989161                       # Class of committed instruction
system.cpu.commit.refs                        2342153                       # Number of memory references committed
system.cpu.commit.swp_count                         0                       # Number of s/w prefetches committed
system.cpu.commit.vec_insts                    256840                       # Number of committed Vector instructions.
system.cpu.committedInsts                     9618678                       # Number of Instructions Simulated
system.cpu.committedOps                      10985031                       # Number of Ops (including micro ops) Simulated
system.cpu.cpi                               0.609586                       # CPI: Cycles Per Instruction
system.cpu.cpi_total                         0.609586                       # CPI: Total CPI of All Threads
system.cpu.decode.BlockedCycles               1208360                       # Number of cycles decode is blocked
system.cpu.decode.BranchMispred                  2891                       # Number of times decode detected a branch misprediction
system.cpu.decode.BranchResolved              1118087                       # Number of times decode resolved a branch
system.cpu.decode.DecodedInsts               12136713                       # Number of instructions handled by decode
system.cpu.decode.IdleCycles                  1973315                       # Number of cycles decode is idle
system.cpu.decode.RunCycles                   2305046                       # Number of cycles decode is running
system.cpu.decode.SquashCycles                  24961                       # Number of cycles decode is squashing
system.cpu.decode.SquashedInsts                  9510                       # Number of squashed instructions handled by decode
system.cpu.decode.UnblockCycles                145600                       # Number of cycles decode is unblocking
system.cpu.dtb.accesses                             0                       # DTB accesses
system.cpu.dtb.align_faults                         0                       # Number of TLB faults due to alignment restrictions
system.cpu.dtb.domain_faults                        0                       # Number of TLB faults due to domain restrictions
system.cpu.dtb.flush_entries                        0                       # Number of entries that have been flushed from TLB
system.cpu.dtb.flush_tlb                            0                       # Number of times complete TLB was flushed
system.cpu.dtb.flush_tlb_asid                       0                       # Number of times TLB was flushed by ASID
system.cpu.dtb.flush_tlb_mva                        0                       # Number of times TLB was flushed by MVA
system.cpu.dtb.flush_tlb_mva_asid                   0                       # Number of times TLB was flushed by MVA & ASID
system.cpu.dtb.hits                                 0                       # DTB hits
system.cpu.dtb.inst_accesses                        0                       # ITB inst accesses
system.cpu.dtb.inst_hits                            0                       # ITB inst hits
system.cpu.dtb.inst_misses                          0                       # ITB inst misses
system.cpu.dtb.misses                               0                       # DTB misses
system.cpu.dtb.perms_faults                         0                       # Number of TLB faults due to permissions restrictions
system.cpu.dtb.prefetch_faults                      0                       # Number of TLB faults due to prefetch
system.cpu.dtb.read_accesses                        0                       # DTB read accesses
system.cpu.dtb.read_hits                            0                       # DTB read hits
system.cpu.dtb.read_misses                          0                       # DTB read misses
system.cpu.dtb.stage2_mmu.stage2_tlb.accesses            0                       # DTB accesses
system.cpu.dtb.stage2_mmu.stage2_tlb.align_faults            0                       # Number of TLB faults due to alignment restrictions
system.cpu.dtb.stage2_mmu.stage2_tlb.domain_faults            0                       # Number of TLB faults due to domain restrictions
system.cpu.dtb.stage2_mmu.stage2_tlb.flush_entries            0                       # Number of entries that have been flushed from TLB
system.cpu.dtb.stage2_mmu.stage2_tlb.flush_tlb            0                       # Number of times complete TLB was flushed
system.cpu.dtb.stage2_mmu.stage2_tlb.flush_tlb_asid            0                       # Number of times TLB was flushed by ASID
system.cpu.dtb.stage2_mmu.stage2_tlb.flush_tlb_mva            0                       # Number of times TLB was flushed by MVA
system.cpu.dtb.stage2_mmu.stage2_tlb.flush_tlb_mva_asid            0                       # Number of times TLB was flushed by MVA & ASID
system.cpu.dtb.stage2_mmu.stage2_tlb.hits            0                       # DTB hits
system.cpu.dtb.stage2_mmu.stage2_tlb.inst_accesses            0                       # ITB inst accesses
system.cpu.dtb.stage2_mmu.stage2_tlb.inst_hits            0                       # ITB inst hits
system.cpu.dtb.stage2_mmu.stage2_tlb.inst_misses            0                       # ITB inst misses
system.cpu.dtb.stage2_mmu.stage2_tlb.misses            0                       # DTB misses
system.cpu.dtb.stage2_mmu.stage2_tlb.perms_faults            0                       # Number of TLB faults due to permissions restrictions
system.cpu.dtb.stage2_mmu.stage2_tlb.prefetch_faults            0                       # Number of TLB faults due to prefetch
system.cpu.dtb.stage2_mmu.stage2_tlb.read_accesses            0                       # DTB read accesses
system.cpu.dtb.stage2_mmu.stage2_tlb.read_hits            0                       # DTB read hits
system.cpu.dtb.stage2_mmu.stage2_tlb.read_misses            0                       # DTB read misses
system.cpu.dtb.stage2_mmu.stage2_tlb.walker.walkRequestOrigin_Requested::Data            0                       # Table walker requests started/completed, data/inst
system.cpu.dtb.stage2_mmu.stage2_tlb.walker.walkRequestOrigin_Requested::Inst            0                       # Table walker requests started/completed, data/inst
system.cpu.dtb.stage2_mmu.stage2_tlb.walker.walkRequestOrigin_Requested::total            0                       # Table walker requests started/completed, data/inst
system.cpu.dtb.stage2_mmu.stage2_tlb.walker.walkRequestOrigin_Completed::Data            0                       # Table walker requests started/completed, data/inst
system.cpu.dtb.stage2_mmu.stage2_tlb.walker.walkRequestOrigin_Completed::Inst            0                       # Table walker requests started/completed, data/inst
system.cpu.dtb.stage2_mmu.stage2_tlb.walker.walkRequestOrigin_Completed::total            0                       # Table walker requests started/completed, data/inst
system.cpu.dtb.stage2_mmu.stage2_tlb.walker.walkRequestOrigin::total            0                       # Table walker requests started/completed, data/inst
system.cpu.dtb.stage2_mmu.stage2_tlb.walker.walks            0                       # Table walker walks requested
system.cpu.dtb.stage2_mmu.stage2_tlb.write_accesses            0                       # DTB write accesses
system.cpu.dtb.stage2_mmu.stage2_tlb.write_hits            0                       # DTB write hits
system.cpu.dtb.stage2_mmu.stage2_tlb.write_misses            0                       # DTB write misses
system.cpu.dtb.walker.walkRequestOrigin_Requested::Data            0                       # Table walker requests started/completed, data/inst
system.cpu.dtb.walker.walkRequestOrigin_Requested::Inst            0                       # Table walker requests started/completed, data/inst
system.cpu.dtb.walker.walkRequestOrigin_Requested::total            0                       # Table walker requests started/completed, data/inst
system.cpu.dtb.walker.walkRequestOrigin_Completed::Data            0                       # Table walker requests started/completed, data/inst
system.cpu.dtb.walker.walkRequestOrigin_Completed::Inst            0                       # Table walker requests started/completed, data/inst
system.cpu.dtb.walker.walkRequestOrigin_Completed::total            0                       # Table walker requests started/completed, data/inst
system.cpu.dtb.walker.walkRequestOrigin::total            0                       # Table walker requests started/completed, data/inst
system.cpu.dtb.walker.walks                         0                       # Table walker walks requested
system.cpu.dtb.write_accesses                       0                       # DTB write accesses
system.cpu.dtb.write_hits                           0                       # DTB write hits
system.cpu.dtb.write_misses                         0                       # DTB write misses
system.cpu.fetch.Branches                     2624401                       # Number of branches that fetch encountered
system.cpu.fetch.CacheLines                   1946814                       # Number of cache lines fetched
system.cpu.fetch.Cycles                       3425144                       # Number of cycles fetch has run and was not squashing or blocked
system.cpu.fetch.IcacheSquashes                  8675                       # Number of outstanding Icache misses that were squashed
system.cpu.fetch.IcacheWaitRetryStallCycles           97                       # Number of stall cycles due to full MSHR
system.cpu.fetch.Insts                       10791529                       # Number of instructions fetch has processed
system.cpu.fetch.MiscStallCycles                    8                       # Number of cycles fetch has spent waiting on interrupts, or bad addresses, or out of MSHRs
system.cpu.fetch.SquashCycles                   55590                       # Number of cycles fetch has spent squashing
system.cpu.fetch.branchRate                  0.447590                       # Number of branch fetches per cycle
system.cpu.fetch.icacheStallCycles            2204238                       # Number of cycles fetch is stalled on an Icache miss
system.cpu.fetch.predictedBranches            1551879                       # Number of branches that fetch has predicted taken
system.cpu.fetch.rate                        1.840487                       # Number of inst fetches per cycle
system.cpu.fetch.rateDist::samples            5657282                       # Number of instructions fetched each cycle (Total)
system.cpu.fetch.rateDist::mean              2.175079                       # Number of instructions fetched each cycle (Total)
system.cpu.fetch.rateDist::stdev             2.828798                       # Number of instructions fetched each cycle (Total)
system.cpu.fetch.rateDist::underflows               0      0.00%      0.00% # Number of instructions fetched each cycle (Total)
system.cpu.fetch.rateDist::0                  3010445     53.21%     53.21% # Number of instructions fetched each cycle (Total)
system.cpu.fetch.rateDist::1                   178137      3.15%     56.36% # Number of instructions fetched each cycle (Total)
system.cpu.fetch.rateDist::2                   480954      8.50%     64.86% # Number of instructions fetched each cycle (Total)
system.cpu.fetch.rateDist::3                   448978      7.94%     72.80% # Number of instructions fetched each cycle (Total)
system.cpu.fetch.rateDist::4                   163386      2.89%     75.69% # Number of instructions fetched each cycle (Total)
system.cpu.fetch.rateDist::5                   381869      6.75%     82.44% # Number of instructions fetched each cycle (Total)
system.cpu.fetch.rateDist::6                   270053      4.77%     87.21% # Number of instructions fetched each cycle (Total)
system.cpu.fetch.rateDist::7                   152832      2.70%     89.91% # Number of instructions fetched each cycle (Total)
system.cpu.fetch.rateDist::8                   570628     10.09%    100.00% # Number of instructions fetched each cycle (Total)
system.cpu.fetch.rateDist::overflows                0      0.00%    100.00% # Number of instructions fetched each cycle (Total)
system.cpu.fetch.rateDist::min_value                0                       # Number of instructions fetched each cycle (Total)
system.cpu.fetch.rateDist::max_value                8                       # Number of instructions fetched each cycle (Total)
system.cpu.fetch.rateDist::total              5657282                       # Number of instructions fetched each cycle (Total)
system.cpu.idleCycles                          206128                       # Total number of cycles that the CPU has spent unscheduled due to idling
system.cpu.iew.branchMispredicts                27058                       # Number of branch mispredicts detected at execute
system.cpu.iew.exec_branches                  2500118                       # Number of branches executed
system.cpu.iew.exec_nop                          6220                       # number of nop insts executed
system.cpu.iew.exec_rate                     1.998889                       # Inst execution rate
system.cpu.iew.exec_refs                      2540273                       # number of memory reference insts executed
system.cpu.iew.exec_stores                    1156877                       # Number of stores executed
system.cpu.iew.exec_swp                             0                       # number of swp insts executed
system.cpu.iew.iewBlockCycles                  247388                       # Number of cycles IEW is blocking
system.cpu.iew.iewDispLoadInsts               1337944                       # Number of dispatched load instructions
system.cpu.iew.iewDispNonSpecInsts                396                       # Number of dispatched non-speculative instructions
system.cpu.iew.iewDispSquashedInsts              3153                       # Number of squashed instructions skipped by dispatch
system.cpu.iew.iewDispStoreInsts              1212810                       # Number of dispatched store instructions
system.cpu.iew.iewDispatchedInsts            11951780                       # Number of instructions dispatched to IQ
system.cpu.iew.iewExecLoadInsts               1383396                       # Number of load instructions executed
system.cpu.iew.iewExecSquashedInsts             44322                       # Number of squashed instructions skipped in execute
system.cpu.iew.iewExecutedInsts              11720306                       # Number of executed instructions
system.cpu.iew.iewIQFullEvents                   1662                       # Number of times the IQ has become full, causing a stall
system.cpu.iew.iewIdleCycles                        0                       # Number of cycles IEW is idle
system.cpu.iew.iewLSQFullEvents                 18677                       # Number of times the LSQ has become full, causing a stall
system.cpu.iew.iewSquashCycles                  24961                       # Number of cycles IEW is squashing
system.cpu.iew.iewUnblockCycles                 21996                       # Number of cycles IEW is unblocking
system.cpu.iew.lsq.thread0.blockedLoads             0                       # Number of blocked loads due to partial load-store forwarding
system.cpu.iew.lsq.thread0.cacheBlocked          1943                       # Number of times an access to memory failed due to the cache being blocked
system.cpu.iew.lsq.thread0.forwLoads            37495                       # Number of loads that had data forwarded from stores
system.cpu.iew.lsq.thread0.ignoredResponses           97                       # Number of memory responses ignored because the instruction is squashed
system.cpu.iew.lsq.thread0.invAddrLoads             0                       # Number of loads ignored due to an invalid address
system.cpu.iew.lsq.thread0.invAddrSwpfs             0                       # Number of software prefetches ignored due to an invalid address
system.cpu.iew.lsq.thread0.memOrderViolation          294                       # Number of memory ordering violations
system.cpu.iew.lsq.thread0.rescheduledLoads        68989                       # Number of loads that were rescheduled
system.cpu.iew.lsq.thread0.squashedLoads        90252                       # Number of loads squashed
system.cpu.iew.lsq.thread0.squashedStores       118349                       # Number of stores squashed
system.cpu.iew.memOrderViolationEvents            294                       # Number of memory order violations
system.cpu.iew.predictedNotTakenIncorrect        17277                       # Number of branches that were predicted not taken incorrectly
system.cpu.iew.predictedTakenIncorrect           9781                       # Number of branches that were predicted taken incorrectly
system.cpu.iew.wb_consumers                  11212060                       # num instructions consuming a value
system.cpu.iew.wb_count                      11627025                       # cumulative count of insts written-back
system.cpu.iew.wb_fanout                     0.520276                       # average fanout of values written-back
system.cpu.iew.wb_producers                   5833368                       # num instructions producing a value
system.cpu.iew.wb_rate                       1.982980                       # insts written-back per cycle
system.cpu.iew.wb_sent                       11637511                       # cumulative count of insts sent to commit
system.cpu.int_regfile_reads                 13158745                       # number of integer regfile reads
system.cpu.int_regfile_writes                 8478756                       # number of integer regfile writes
system.cpu.ipc                               1.640458                       # IPC: Instructions Per Cycle
system.cpu.ipc_total                         1.640458                       # IPC: Total IPC of All Threads
system.cpu.iq.FU_type_0::No_OpClass               599      0.01%      0.01% # Type of FU issued
system.cpu.iq.FU_type_0::IntAlu               8892954     75.59%     75.60% # Type of FU issued
system.cpu.iq.FU_type_0::IntMult                90749      0.77%     76.37% # Type of FU issued
system.cpu.iq.FU_type_0::IntDiv                    14      0.00%     76.37% # Type of FU issued
system.cpu.iq.FU_type_0::FloatAdd                7486      0.06%     76.43% # Type of FU issued
system.cpu.iq.FU_type_0::FloatCmp               11867      0.10%     76.53% # Type of FU issued
system.cpu.iq.FU_type_0::FloatCvt               56298      0.48%     77.01% # Type of FU issued
system.cpu.iq.FU_type_0::FloatMult              48936      0.42%     77.43% # Type of FU issued
system.cpu.iq.FU_type_0::FloatMultAcc           20586      0.17%     77.60% # Type of FU issued
system.cpu.iq.FU_type_0::FloatDiv               23882      0.20%     77.80% # Type of FU issued
system.cpu.iq.FU_type_0::FloatMisc              39764      0.34%     78.14% # Type of FU issued
system.cpu.iq.FU_type_0::FloatSqrt               3207      0.03%     78.17% # Type of FU issued
system.cpu.iq.FU_type_0::SimdAdd                 1337      0.01%     78.18% # Type of FU issued
system.cpu.iq.FU_type_0::SimdAddAcc                 0      0.00%     78.18% # Type of FU issued
system.cpu.iq.FU_type_0::SimdAlu                 3146      0.03%     78.21% # Type of FU issued
system.cpu.iq.FU_type_0::SimdCmp                 2405      0.02%     78.23% # Type of FU issued
system.cpu.iq.FU_type_0::SimdCvt                    5      0.00%     78.23% # Type of FU issued
system.cpu.iq.FU_type_0::SimdMisc                1976      0.02%     78.24% # Type of FU issued
system.cpu.iq.FU_type_0::SimdMult                   0      0.00%     78.24% # Type of FU issued
system.cpu.iq.FU_type_0::SimdMultAcc                0      0.00%     78.24% # Type of FU issued
system.cpu.iq.FU_type_0::SimdShift                  0      0.00%     78.24% # Type of FU issued
system.cpu.iq.FU_type_0::SimdShiftAcc               0      0.00%     78.24% # Type of FU issued
system.cpu.iq.FU_type_0::SimdDiv                    0      0.00%     78.24% # Type of FU issued
system.cpu.iq.FU_type_0::SimdSqrt                   0      0.00%     78.24% # Type of FU issued
system.cpu.iq.FU_type_0::SimdFloatAdd               0      0.00%     78.24% # Type of FU issued
system.cpu.iq.FU_type_0::SimdFloatAlu               0      0.00%     78.24% # Type of FU issued
system.cpu.iq.FU_type_0::SimdFloatCmp               0      0.00%     78.24% # Type of FU issued
system.cpu.iq.FU_type_0::SimdFloatCvt               0      0.00%     78.24% # Type of FU issued
system.cpu.iq.FU_type_0::SimdFloatDiv               0      0.00%     78.24% # Type of FU issued
system.cpu.iq.FU_type_0::SimdFloatMisc              0      0.00%     78.24% # Type of FU issued
system.cpu.iq.FU_type_0::SimdFloatMult              0      0.00%     78.24% # Type of FU issued
system.cpu.iq.FU_type_0::SimdFloatMultAcc            0      0.00%     78.24% # Type of FU issued
system.cpu.iq.FU_type_0::SimdFloatSqrt              0      0.00%     78.24% # Type of FU issued
system.cpu.iq.FU_type_0::SimdReduceAdd              0      0.00%     78.24% # Type of FU issued
system.cpu.iq.FU_type_0::SimdReduceAlu              0      0.00%     78.24% # Type of FU issued
system.cpu.iq.FU_type_0::SimdReduceCmp              0      0.00%     78.24% # Type of FU issued
system.cpu.iq.FU_type_0::SimdFloatReduceAdd            0      0.00%     78.24% # Type of FU issued
system.cpu.iq.FU_type_0::SimdFloatReduceCmp            0      0.00%     78.24% # Type of FU issued
system.cpu.iq.FU_type_0::SimdAes                    0      0.00%     78.24% # Type of FU issued
system.cpu.iq.FU_type_0::SimdAesMix                 0      0.00%     78.24% # Type of FU issued
system.cpu.iq.FU_type_0::SimdSha1Hash               0      0.00%     78.24% # Type of FU issued
system.cpu.iq.FU_type_0::SimdSha1Hash2              0      0.00%     78.24% # Type of FU issued
system.cpu.iq.FU_type_0::SimdSha256Hash             0      0.00%     78.24% # Type of FU issued
system.cpu.iq.FU_type_0::SimdSha256Hash2            0      0.00%     78.24% # Type of FU issued
system.cpu.iq.FU_type_0::SimdShaSigma2              0      0.00%     78.24% # Type of FU issued
system.cpu.iq.FU_type_0::SimdShaSigma3              0      0.00%     78.24% # Type of FU issued
system.cpu.iq.FU_type_0::SimdPredAlu                0      0.00%     78.24% # Type of FU issued
system.cpu.iq.FU_type_0::MemRead              1392868     11.84%     90.08% # Type of FU issued
system.cpu.iq.FU_type_0::MemWrite             1166549      9.92%    100.00% # Type of FU issued
system.cpu.iq.FU_type_0::FloatMemRead               0      0.00%    100.00% # Type of FU issued
system.cpu.iq.FU_type_0::FloatMemWrite              0      0.00%    100.00% # Type of FU issued
system.cpu.iq.FU_type_0::IprAccess                  0      0.00%    100.00% # Type of FU issued
system.cpu.iq.FU_type_0::InstPrefetch               0      0.00%    100.00% # Type of FU issued
system.cpu.iq.FU_type_0::total               11764628                       # Type of FU issued
system.cpu.iq.fp_alu_accesses                       0                       # Number of floating point alu accesses
system.cpu.iq.fp_inst_queue_reads                   0                       # Number of floating instruction queue reads
system.cpu.iq.fp_inst_queue_wakeup_accesses            0                       # Number of floating instruction queue wakeup accesses
system.cpu.iq.fp_inst_queue_writes                  0                       # Number of floating instruction queue writes
system.cpu.iq.fu_busy_cnt                      120426                       # FU busy when requested
system.cpu.iq.fu_busy_rate                   0.010236                       # FU busy rate (busy events/executed inst)
system.cpu.iq.fu_full::No_OpClass                   0      0.00%      0.00% # attempts to use FU when none available
system.cpu.iq.fu_full::IntAlu                   38269     31.78%     31.78% # attempts to use FU when none available
system.cpu.iq.fu_full::IntMult                     15      0.01%     31.79% # attempts to use FU when none available
system.cpu.iq.fu_full::IntDiv                       0      0.00%     31.79% # attempts to use FU when none available
system.cpu.iq.fu_full::FloatAdd                     0      0.00%     31.79% # attempts to use FU when none available
system.cpu.iq.fu_full::FloatCmp                     0      0.00%     31.79% # attempts to use FU when none available
system.cpu.iq.fu_full::FloatCvt                     0      0.00%     31.79% # attempts to use FU when none available
system.cpu.iq.fu_full::FloatMult                15224     12.64%     44.43% # attempts to use FU when none available
system.cpu.iq.fu_full::FloatMultAcc               473      0.39%     44.83% # attempts to use FU when none available
system.cpu.iq.fu_full::FloatDiv                     9      0.01%     44.83% # attempts to use FU when none available
system.cpu.iq.fu_full::FloatMisc                10943      9.09%     53.92% # attempts to use FU when none available
system.cpu.iq.fu_full::FloatSqrt                    0      0.00%     53.92% # attempts to use FU when none available
system.cpu.iq.fu_full::SimdAdd                      0      0.00%     53.92% # attempts to use FU when none available
system.cpu.iq.fu_full::SimdAddAcc                   0      0.00%     53.92% # attempts to use FU when none available
system.cpu.iq.fu_full::SimdAlu                     10      0.01%     53.93% # attempts to use FU when none available
system.cpu.iq.fu_full::SimdCmp                     10      0.01%     53.94% # attempts to use FU when none available
system.cpu.iq.fu_full::SimdCvt                      0      0.00%     53.94% # attempts to use FU when none available
system.cpu.iq.fu_full::SimdMisc                     0      0.00%     53.94% # attempts to use FU when none available
system.cpu.iq.fu_full::SimdMult                     0      0.00%     53.94% # attempts to use FU when none available
system.cpu.iq.fu_full::SimdMultAcc                  0      0.00%     53.94% # attempts to use FU when none available
system.cpu.iq.fu_full::SimdShift                    0      0.00%     53.94% # attempts to use FU when none available
system.cpu.iq.fu_full::SimdShiftAcc                 0      0.00%     53.94% # attempts to use FU when none available
system.cpu.iq.fu_full::SimdDiv                      0      0.00%     53.94% # attempts to use FU when none available
system.cpu.iq.fu_full::SimdSqrt                     0      0.00%     53.94% # attempts to use FU when none available
system.cpu.iq.fu_full::SimdFloatAdd                 0      0.00%     53.94% # attempts to use FU when none available
system.cpu.iq.fu_full::SimdFloatAlu                 0      0.00%     53.94% # attempts to use FU when none available
system.cpu.iq.fu_full::SimdFloatCmp                 0      0.00%     53.94% # attempts to use FU when none available
system.cpu.iq.fu_full::SimdFloatCvt                 0      0.00%     53.94% # attempts to use FU when none available
system.cpu.iq.fu_full::SimdFloatDiv                 0      0.00%     53.94% # attempts to use FU when none available
system.cpu.iq.fu_full::SimdFloatMisc                0      0.00%     53.94% # attempts to use FU when none available
system.cpu.iq.fu_full::SimdFloatMult                0      0.00%     53.94% # attempts to use FU when none available
system.cpu.iq.fu_full::SimdFloatMultAcc             0      0.00%     53.94% # attempts to use FU when none available
system.cpu.iq.fu_full::SimdFloatSqrt                0      0.00%     53.94% # attempts to use FU when none available
system.cpu.iq.fu_full::SimdReduceAdd                0      0.00%     53.94% # attempts to use FU when none available
system.cpu.iq.fu_full::SimdReduceAlu                0      0.00%     53.94% # attempts to use FU when none available
system.cpu.iq.fu_full::SimdReduceCmp                0      0.00%     53.94% # attempts to use FU when none available
system.cpu.iq.fu_full::SimdFloatReduceAdd            0      0.00%     53.94% # attempts to use FU when none available
system.cpu.iq.fu_full::SimdFloatReduceCmp            0      0.00%     53.94% # attempts to use FU when none available
system.cpu.iq.fu_full::SimdAes                      0      0.00%     53.94% # attempts to use FU when none available
system.cpu.iq.fu_full::SimdAesMix                   0      0.00%     53.94% # attempts to use FU when none available
system.cpu.iq.fu_full::SimdSha1Hash                 0      0.00%     53.94% # attempts to use FU when none available
system.cpu.iq.fu_full::SimdSha1Hash2                0      0.00%     53.94% # attempts to use FU when none available
system.cpu.iq.fu_full::SimdSha256Hash               0      0.00%     53.94% # attempts to use FU when none available
system.cpu.iq.fu_full::SimdSha256Hash2              0      0.00%     53.94% # attempts to use FU when none available
system.cpu.iq.fu_full::SimdShaSigma2                0      0.00%     53.94% # attempts to use FU when none available
system.cpu.iq.fu_full::SimdShaSigma3                0      0.00%     53.94% # attempts to use FU when none available
system.cpu.iq.fu_full::SimdPredAlu                  0      0.00%     53.94% # attempts to use FU when none available
system.cpu.iq.fu_full::MemRead                  22899     19.01%     72.95% # attempts to use FU when none available
system.cpu.iq.fu_full::MemWrite                 32574     27.05%    100.00% # attempts to use FU when none available
system.cpu.iq.fu_full::FloatMemRead                 0      0.00%    100.00% # attempts to use FU when none available
system.cpu.iq.fu_full::FloatMemWrite                0      0.00%    100.00% # attempts to use FU when none available
system.cpu.iq.fu_full::IprAccess                    0      0.00%    100.00% # attempts to use FU when none available
system.cpu.iq.fu_full::InstPrefetch                 0      0.00%    100.00% # attempts to use FU when none available
system.cpu.iq.int_alu_accesses               11564078                       # Number of integer alu accesses
system.cpu.iq.int_inst_queue_reads           28695263                       # Number of integer instruction queue reads
system.cpu.iq.int_inst_queue_wakeup_accesses     11338971                       # Number of integer instruction queue wakeup accesses
system.cpu.iq.int_inst_queue_writes          12459308                       # Number of integer instruction queue writes
system.cpu.iq.iqInstsAdded                   11945164                       # Number of instructions added to the IQ (excludes non-spec)
system.cpu.iq.iqInstsIssued                  11764628                       # Number of instructions issued
system.cpu.iq.iqNonSpecInstsAdded                 396                       # Number of non-speculative instructions added to the IQ
system.cpu.iq.iqSquashedInstsExamined          960528                       # Number of squashed instructions iterated over during squash; mainly for profiling
system.cpu.iq.iqSquashedInstsIssued              2280                       # Number of squashed instructions issued
system.cpu.iq.iqSquashedNonSpecRemoved             67                       # Number of squashed non-spec instructions that were removed
system.cpu.iq.iqSquashedOperandsExamined       695459                       # Number of squashed operands that are examined and possibly removed from graph
system.cpu.iq.issued_per_cycle::samples       5657282                       # Number of insts issued each cycle
system.cpu.iq.issued_per_cycle::mean         2.079555                       # Number of insts issued each cycle
system.cpu.iq.issued_per_cycle::stdev        2.040376                       # Number of insts issued each cycle
system.cpu.iq.issued_per_cycle::underflows            0      0.00%      0.00% # Number of insts issued each cycle
system.cpu.iq.issued_per_cycle::0             1596096     28.21%     28.21% # Number of insts issued each cycle
system.cpu.iq.issued_per_cycle::1             1195647     21.13%     49.35% # Number of insts issued each cycle
system.cpu.iq.issued_per_cycle::2              872430     15.42%     64.77% # Number of insts issued each cycle
system.cpu.iq.issued_per_cycle::3              782908     13.84%     78.61% # Number of insts issued each cycle
system.cpu.iq.issued_per_cycle::4              333515      5.90%     84.50% # Number of insts issued each cycle
system.cpu.iq.issued_per_cycle::5              394187      6.97%     91.47% # Number of insts issued each cycle
system.cpu.iq.issued_per_cycle::6              279337      4.94%     96.41% # Number of insts issued each cycle
system.cpu.iq.issued_per_cycle::7              130916      2.31%     98.72% # Number of insts issued each cycle
system.cpu.iq.issued_per_cycle::8               72246      1.28%    100.00% # Number of insts issued each cycle
system.cpu.iq.issued_per_cycle::overflows            0      0.00%    100.00% # Number of insts issued each cycle
system.cpu.iq.issued_per_cycle::min_value            0                       # Number of insts issued each cycle
system.cpu.iq.issued_per_cycle::max_value            8                       # Number of insts issued each cycle
system.cpu.iq.issued_per_cycle::total         5657282                       # Number of insts issued each cycle
system.cpu.iq.rate                           2.006448                       # Inst issue rate
system.cpu.iq.vec_alu_accesses                 320377                       # Number of vector alu accesses
system.cpu.iq.vec_inst_queue_reads             613981                       # Number of vector instruction queue reads
system.cpu.iq.vec_inst_queue_wakeup_accesses       288054                       # Number of vector instruction queue wakeup accesses
system.cpu.iq.vec_inst_queue_writes            447068                       # Number of vector instruction queue writes
system.cpu.itb.accesses                             0                       # DTB accesses
system.cpu.itb.align_faults                         0                       # Number of TLB faults due to alignment restrictions
system.cpu.itb.domain_faults                        0                       # Number of TLB faults due to domain restrictions
system.cpu.itb.flush_entries                        0                       # Number of entries that have been flushed from TLB
system.cpu.itb.flush_tlb                            0                       # Number of times complete TLB was flushed
system.cpu.itb.flush_tlb_asid                       0                       # Number of times TLB was flushed by ASID
system.cpu.itb.flush_tlb_mva                        0                       # Number of times TLB was flushed by MVA
system.cpu.itb.flush_tlb_mva_asid                   0                       # Number of times TLB was flushed by MVA & ASID
system.cpu.itb.hits                                 0                       # DTB hits
system.cpu.itb.inst_accesses                        0                       # ITB inst accesses
system.cpu.itb.inst_hits                            0                       # ITB inst hits
system.cpu.itb.inst_misses                          0                       # ITB inst misses
system.cpu.itb.misses                               0                       # DTB misses
system.cpu.itb.perms_faults                         0                       # Number of TLB faults due to permissions restrictions
system.cpu.itb.prefetch_faults                      0                       # Number of TLB faults due to prefetch
system.cpu.itb.read_accesses                        0                       # DTB read accesses
system.cpu.itb.read_hits                            0                       # DTB read hits
system.cpu.itb.read_misses                          0                       # DTB read misses
system.cpu.itb.stage2_mmu.stage2_tlb.accesses            0                       # DTB accesses
system.cpu.itb.stage2_mmu.stage2_tlb.align_faults            0                       # Number of TLB faults due to alignment restrictions
system.cpu.itb.stage2_mmu.stage2_tlb.domain_faults            0                       # Number of TLB faults due to domain restrictions
system.cpu.itb.stage2_mmu.stage2_tlb.flush_entries            0                       # Number of entries that have been flushed from TLB
system.cpu.itb.stage2_mmu.stage2_tlb.flush_tlb            0                       # Number of times complete TLB was flushed
system.cpu.itb.stage2_mmu.stage2_tlb.flush_tlb_asid            0                       # Number of times TLB was flushed by ASID
system.cpu.itb.stage2_mmu.stage2_tlb.flush_tlb_mva            0                       # Number of times TLB was flushed by MVA
system.cpu.itb.stage2_mmu.stage2_tlb.flush_tlb_mva_asid            0                       # Number of times TLB was flushed by MVA & ASID
system.cpu.itb.stage2_mmu.stage2_tlb.hits            0                       # DTB hits
system.cpu.itb.stage2_mmu.stage2_tlb.inst_accesses            0                       # ITB inst accesses
system.cpu.itb.stage2_mmu.stage2_tlb.inst_hits            0                       # ITB inst hits
system.cpu.itb.stage2_mmu.stage2_tlb.inst_misses            0                       # ITB inst misses
system.cpu.itb.stage2_mmu.stage2_tlb.misses            0                       # DTB misses
system.cpu.itb.stage2_mmu.stage2_tlb.perms_faults            0                       # Number of TLB faults due to permissions restrictions
system.cpu.itb.stage2_mmu.stage2_tlb.prefetch_faults            0                       # Number of TLB faults due to prefetch
system.cpu.itb.stage2_mmu.stage2_tlb.read_accesses            0                       # DTB read accesses
system.cpu.itb.stage2_mmu.stage2_tlb.read_hits            0                       # DTB read hits
system.cpu.itb.stage2_mmu.stage2_tlb.read_misses            0                       # DTB read misses
system.cpu.itb.stage2_mmu.stage2_tlb.walker.walkRequestOrigin_Requested::Data            0                       # Table walker requests started/completed, data/inst
system.cpu.itb.stage2_mmu.stage2_tlb.walker.walkRequestOrigin_Requested::Inst            0                       # Table walker requests started/completed, data/inst
system.cpu.itb.stage2_mmu.stage2_tlb.walker.walkRequestOrigin_Requested::total            0                       # Table walker requests started/completed, data/inst
system.cpu.itb.stage2_mmu.stage2_tlb.walker.walkRequestOrigin_Completed::Data            0                       # Table walker requests started/completed, data/inst
system.cpu.itb.stage2_mmu.stage2_tlb.walker.walkRequestOrigin_Completed::Inst            0                       # Table walker requests started/completed, data/inst
system.cpu.itb.stage2_mmu.stage2_tlb.walker.walkRequestOrigin_Completed::total            0                       # Table walker requests started/completed, data/inst
system.cpu.itb.stage2_mmu.stage2_tlb.walker.walkRequestOrigin::total            0                       # Table walker requests started/completed, data/inst
system.cpu.itb.stage2_mmu.stage2_tlb.walker.walks            0                       # Table walker walks requested
system.cpu.itb.stage2_mmu.stage2_tlb.write_accesses            0                       # DTB write accesses
system.cpu.itb.stage2_mmu.stage2_tlb.write_hits            0                       # DTB write hits
system.cpu.itb.stage2_mmu.stage2_tlb.write_misses            0                       # DTB write misses
system.cpu.itb.walker.walkRequestOrigin_Requested::Data            0                       # Table walker requests started/completed, data/inst
system.cpu.itb.walker.walkRequestOrigin_Requested::Inst            0                       # Table walker requests started/completed, data/inst
system.cpu.itb.walker.walkRequestOrigin_Requested::total            0                       # Table walker requests started/completed, data/inst
system.cpu.itb.walker.walkRequestOrigin_Completed::Data            0                       # Table walker requests started/completed, data/inst
system.cpu.itb.walker.walkRequestOrigin_Completed::Inst            0                       # Table walker requests started/completed, data/inst
system.cpu.itb.walker.walkRequestOrigin_Completed::total            0                       # Table walker requests started/completed, data/inst
system.cpu.itb.walker.walkRequestOrigin::total            0                       # Table walker requests started/completed, data/inst
system.cpu.itb.walker.walks                         0                       # Table walker walks requested
system.cpu.itb.write_accesses                       0                       # DTB write accesses
system.cpu.itb.write_hits                           0                       # DTB write hits
system.cpu.itb.write_misses                         0                       # DTB write misses
system.cpu.memDep0.conflictingLoads            113015                       # Number of conflicting loads.
system.cpu.memDep0.conflictingStores            99182                       # Number of conflicting stores.
system.cpu.memDep0.insertedLoads              1337944                       # Number of loads inserted to the mem dependence unit.
system.cpu.memDep0.insertedStores             1212810                       # Number of stores inserted to the mem dependence unit.
system.cpu.misc_regfile_reads                 8364574                       # number of misc regfile reads
system.cpu.misc_regfile_writes                 154088                       # number of misc regfile writes
system.cpu.numCycles                          5863410                       # number of cpu cycles simulated
system.cpu.numWorkItemsCompleted                    0                       # number of work items this cpu completed
system.cpu.numWorkItemsStarted                      0                       # number of work items this cpu started
system.cpu.rename.BlockCycles                  398086                       # Number of cycles rename is blocking
system.cpu.rename.CommittedMaps              11889111                       # Number of HB maps that are committed
system.cpu.rename.IQFullEvents                 215560                       # Number of times rename has blocked due to IQ full
system.cpu.rename.IdleCycles                  2035256                       # Number of cycles rename is idle
system.cpu.rename.LQFullEvents                   4444                       # Number of times rename has blocked due to LQ full
system.cpu.rename.ROBFullEvents                  8364                       # Number of times rename has blocked due to ROB full
system.cpu.rename.RenameLookups              19546533                       # Number of register rename lookups that rename has made
system.cpu.rename.RenamedInsts               12046652                       # Number of instructions processed by rename
system.cpu.rename.RenamedOperands            13010548                       # Number of destination operands rename has renamed
system.cpu.rename.RunCycles                   2381746                       # Number of cycles rename is running
system.cpu.rename.SQFullEvents                 160279                       # Number of times rename has blocked due to SQ full
system.cpu.rename.SquashCycles                  24961                       # Number of cycles rename is squashing
system.cpu.rename.UnblockCycles                432674                       # Number of cycles rename is unblocking
system.cpu.rename.UndoneMaps                  1121437                       # Number of HB maps that are undone due to squashing
system.cpu.rename.int_rename_lookups         13489217                       # Number of integer rename lookups
system.cpu.rename.serializeStallCycles         384559                       # count of cycles rename stalled for serializing inst
system.cpu.rename.serializingInsts              19312                       # count of serializing insts renamed
system.cpu.rename.skidInsts                    690178                       # count of insts added to the skid buffer
system.cpu.rename.tempSerializingInsts            406                       # count of temporary serializing insts renamed
system.cpu.rename.vec_rename_lookups           412836                       # Number of vector rename lookups
system.cpu.rob.rob_reads                     16907383                       # The number of ROB reads
system.cpu.rob.rob_writes                    24034175                       # The number of ROB writes
system.cpu.timesIdled                            8000                       # Number of times that the entire CPU went into an idle state and unscheduled itself
system.cpu.vec_regfile_reads                   325961                       # number of vector regfile reads
system.cpu.vec_regfile_writes                  220502                       # number of vector regfile writes
system.cpu.workload.numSyscalls                    61                       # Number of system calls
system.membus.snoop_filter.hit_multi_requests            0                       # Number of requests hitting in the snoop filter with multiple (>1) holders of the requested data.
system.membus.snoop_filter.hit_multi_snoops            0                       # Number of snoops hitting in the snoop filter with multiple (>1) holders of the requested data.
system.membus.snoop_filter.hit_single_requests            0                       # Number of requests hitting in the snoop filter with a single holder of the requested data.
system.membus.snoop_filter.hit_single_snoops            0                       # Number of snoops hitting in the snoop filter with a single holder of the requested data.
system.membus.snoop_filter.tot_requests          9160                       # Total number of requests made to the snoop filter.
system.membus.snoop_filter.tot_snoops               0                       # Total number of snoops made to the snoop filter.
system.tol2bus.snoop_filter.hit_multi_requests            2                       # Number of requests hitting in the snoop filter with multiple (>1) holders of the requested data.
system.tol2bus.snoop_filter.hit_multi_snoops            0                       # Number of snoops hitting in the snoop filter with multiple (>1) holders of the requested data.
system.tol2bus.snoop_filter.hit_single_requests        35676                       # Number of requests hitting in the snoop filter with a single holder of the requested data.
system.tol2bus.snoop_filter.hit_single_snoops            0                       # Number of snoops hitting in the snoop filter with a single holder of the requested data.
system.tol2bus.snoop_filter.tot_requests        72633                       # Total number of requests made to the snoop filter.
system.tol2bus.snoop_filter.tot_snoops              0                       # Total number of snoops made to the snoop filter.
system.membus.trans_dist::ReadResp               5316                       # Transaction distribution
system.membus.trans_dist::ReadExReq              3767                       # Transaction distribution
system.membus.trans_dist::ReadExResp             3767                       # Transaction distribution
system.membus.trans_dist::ReadSharedReq          5316                       # Transaction distribution
system.membus.trans_dist::InvalidateReq            77                       # Transaction distribution
system.membus.pkt_count_system.l2.mem_side::system.mem_ctrls.port        18243                       # Packet count per connected master and slave (bytes)
system.membus.pkt_count::total                  18243                       # Packet count per connected master and slave (bytes)
system.membus.pkt_size_system.l2.mem_side::system.mem_ctrls.port       581312                       # Cumulative packet size per connected master and slave (bytes)
system.membus.pkt_size::total                  581312                       # Cumulative packet size per connected master and slave (bytes)
system.membus.snoops                                0                       # Total snoops (count)
system.membus.snoopTraffic                          0                       # Total snoop traffic (bytes)
system.membus.snoop_fanout::samples              9160                       # Request fanout histogram
system.membus.snoop_fanout::mean                    0                       # Request fanout histogram
system.membus.snoop_fanout::stdev                   0                       # Request fanout histogram
system.membus.snoop_fanout::underflows              0      0.00%      0.00% # Request fanout histogram
system.membus.snoop_fanout::0                    9160    100.00%    100.00% # Request fanout histogram
system.membus.snoop_fanout::1                       0      0.00%    100.00% # Request fanout histogram
system.membus.snoop_fanout::overflows               0      0.00%    100.00% # Request fanout histogram
system.membus.snoop_fanout::min_value               0                       # Request fanout histogram
system.membus.snoop_fanout::max_value               0                       # Request fanout histogram
system.membus.snoop_fanout::total                9160                       # Request fanout histogram
system.membus.reqLayer0.occupancy            11104500                       # Layer occupancy (ticks)
system.membus.reqLayer0.utilization               0.4                       # Layer utilization (%)
system.membus.respLayer1.occupancy           47895750                       # Layer occupancy (ticks)
system.membus.respLayer1.utilization              1.6                       # Layer utilization (%)
system.membus.power_state.pwrStateResidencyTicks::UNDEFINED   2931704500                       # Cumulative time (in ticks) in various power states
system.tol2bus.trans_dist::ReadResp             32274                       # Transaction distribution
system.tol2bus.trans_dist::WritebackDirty         9441                       # Transaction distribution
system.tol2bus.trans_dist::WritebackClean        12630                       # Transaction distribution
system.tol2bus.trans_dist::CleanEvict           13605                       # Transaction distribution
system.tol2bus.trans_dist::ReadExReq             4574                       # Transaction distribution
system.tol2bus.trans_dist::ReadExResp            4574                       # Transaction distribution
system.tol2bus.trans_dist::ReadCleanReq         12887                       # Transaction distribution
system.tol2bus.trans_dist::ReadSharedReq        19388                       # Transaction distribution
system.tol2bus.trans_dist::InvalidateReq          108                       # Transaction distribution
system.tol2bus.trans_dist::InvalidateResp          108                       # Transaction distribution
system.tol2bus.pkt_count_system.cpu.icache.mem_side::system.l2.cpu_side        38403                       # Packet count per connected master and slave (bytes)
system.tol2bus.pkt_count_system.cpu.dcache.mem_side::system.l2.cpu_side        71186                       # Packet count per connected master and slave (bytes)
system.tol2bus.pkt_count::total                109589                       # Packet count per connected master and slave (bytes)
system.tol2bus.pkt_size_system.cpu.icache.mem_side::system.l2.cpu_side      1633024                       # Cumulative packet size per connected master and slave (bytes)
system.tol2bus.pkt_size_system.cpu.dcache.mem_side::system.l2.cpu_side      2137792                       # Cumulative packet size per connected master and slave (bytes)
system.tol2bus.pkt_size::total                3770816                       # Cumulative packet size per connected master and slave (bytes)
system.tol2bus.snoops                               0                       # Total snoops (count)
system.tol2bus.snoopTraffic                         0                       # Total snoop traffic (bytes)
system.tol2bus.snoop_fanout::samples            36957                       # Request fanout histogram
system.tol2bus.snoop_fanout::mean            0.000054                       # Request fanout histogram
system.tol2bus.snoop_fanout::stdev           0.007356                       # Request fanout histogram
system.tol2bus.snoop_fanout::underflows             0      0.00%      0.00% # Request fanout histogram
system.tol2bus.snoop_fanout::0                  36955     99.99%     99.99% # Request fanout histogram
system.tol2bus.snoop_fanout::1                      2      0.01%    100.00% # Request fanout histogram
system.tol2bus.snoop_fanout::2                      0      0.00%    100.00% # Request fanout histogram
system.tol2bus.snoop_fanout::overflows              0      0.00%    100.00% # Request fanout histogram
system.tol2bus.snoop_fanout::min_value              0                       # Request fanout histogram
system.tol2bus.snoop_fanout::max_value              1                       # Request fanout histogram
system.tol2bus.snoop_fanout::total              36957                       # Request fanout histogram
system.tol2bus.reqLayer0.occupancy           58387500                       # Layer occupancy (ticks)
system.tol2bus.reqLayer0.utilization              2.0                       # Layer utilization (%)
system.tol2bus.respLayer1.occupancy          35999495                       # Layer occupancy (ticks)
system.tol2bus.respLayer1.utilization             1.2                       # Layer utilization (%)
system.tol2bus.respLayer0.occupancy          19332493                       # Layer occupancy (ticks)
system.tol2bus.respLayer0.utilization             0.7                       # Layer utilization (%)
system.tol2bus.power_state.pwrStateResidencyTicks::UNDEFINED   2931704500                       # Cumulative time (in ticks) in various power states
system.voltage_domain.voltage                       1                       # Voltage in Volts
system.clk_domain.clock                          1000                       # Clock period in ticks
system.l2.demand_hits::.cpu.inst                10574                       # number of demand (read+write) hits
system.l2.demand_hits::.cpu.data                17191                       # number of demand (read+write) hits
system.l2.demand_hits::total                    27765                       # number of demand (read+write) hits
system.l2.overall_hits::.cpu.inst               10574                       # number of overall hits
system.l2.overall_hits::.cpu.data               17191                       # number of overall hits
system.l2.overall_hits::total                   27765                       # number of overall hits
system.l2.demand_misses::.cpu.inst               2313                       # number of demand (read+write) misses
system.l2.demand_misses::.cpu.data               6771                       # number of demand (read+write) misses
system.l2.demand_misses::total                   9084                       # number of demand (read+write) misses
system.l2.overall_misses::.cpu.inst              2313                       # number of overall misses
system.l2.overall_misses::.cpu.data              6771                       # number of overall misses
system.l2.overall_misses::total                  9084                       # number of overall misses
system.l2.demand_miss_latency::.cpu.inst    181754000                       # number of demand (read+write) miss cycles
system.l2.demand_miss_latency::.cpu.data    511599000                       # number of demand (read+write) miss cycles
system.l2.demand_miss_latency::total        693353000                       # number of demand (read+write) miss cycles
system.l2.overall_miss_latency::.cpu.inst    181754000                       # number of overall miss cycles
system.l2.overall_miss_latency::.cpu.data    511599000                       # number of overall miss cycles
system.l2.overall_miss_latency::total       693353000                       # number of overall miss cycles
system.l2.demand_accesses::.cpu.inst            12887                       # number of demand (read+write) accesses
system.l2.demand_accesses::.cpu.data            23962                       # number of demand (read+write) accesses
system.l2.demand_accesses::total                36849                       # number of demand (read+write) accesses
system.l2.overall_accesses::.cpu.inst           12887                       # number of overall (read+write) accesses
system.l2.overall_accesses::.cpu.data           23962                       # number of overall (read+write) accesses
system.l2.overall_accesses::total               36849                       # number of overall (read+write) accesses
system.l2.demand_miss_rate::.cpu.inst        0.179483                       # miss rate for demand accesses
system.l2.demand_miss_rate::.cpu.data        0.282572                       # miss rate for demand accesses
system.l2.demand_miss_rate::total            0.246520                       # miss rate for demand accesses
system.l2.overall_miss_rate::.cpu.inst       0.179483                       # miss rate for overall accesses
system.l2.overall_miss_rate::.cpu.data       0.282572                       # miss rate for overall accesses
system.l2.overall_miss_rate::total           0.246520                       # miss rate for overall accesses
system.l2.demand_avg_miss_latency::.cpu.inst 78579.334198                       # average overall miss latency
system.l2.demand_avg_miss_latency::.cpu.data 75557.377049                       # average overall miss latency
system.l2.demand_avg_miss_latency::total 76326.838397                       # average overall miss latency
system.l2.overall_avg_miss_latency::.cpu.inst 78579.334198                       # average overall miss latency
system.l2.overall_avg_miss_latency::.cpu.data 75557.377049                       # average overall miss latency
system.l2.overall_avg_miss_latency::total 76326.838397                       # average overall miss latency
system.l2.blocked_cycles::no_mshrs                  0                       # number of cycles access was blocked
system.l2.blocked_cycles::no_targets                0                       # number of cycles access was blocked
system.l2.blocked::no_mshrs                         0                       # number of cycles access was blocked
system.l2.blocked::no_targets                       0                       # number of cycles access was blocked
system.l2.avg_blocked_cycles::no_mshrs            nan                       # average number of cycles each access was blocked
system.l2.avg_blocked_cycles::no_targets          nan                       # average number of cycles each access was blocked
system.l2.demand_mshr_misses::.cpu.inst          2313                       # number of demand (read+write) MSHR misses
system.l2.demand_mshr_misses::.cpu.data          6771                       # number of demand (read+write) MSHR misses
system.l2.demand_mshr_misses::total              9084                       # number of demand (read+write) MSHR misses
system.l2.overall_mshr_misses::.cpu.inst         2313                       # number of overall MSHR misses
system.l2.overall_mshr_misses::.cpu.data         6771                       # number of overall MSHR misses
system.l2.overall_mshr_misses::total             9084                       # number of overall MSHR misses
system.l2.demand_mshr_miss_latency::.cpu.inst    158633501                       # number of demand (read+write) MSHR miss cycles
system.l2.demand_mshr_miss_latency::.cpu.data    443889000                       # number of demand (read+write) MSHR miss cycles
system.l2.demand_mshr_miss_latency::total    602522501                       # number of demand (read+write) MSHR miss cycles
system.l2.overall_mshr_miss_latency::.cpu.inst    158633501                       # number of overall MSHR miss cycles
system.l2.overall_mshr_miss_latency::.cpu.data    443889000                       # number of overall MSHR miss cycles
system.l2.overall_mshr_miss_latency::total    602522501                       # number of overall MSHR miss cycles
system.l2.demand_mshr_miss_rate::.cpu.inst     0.179483                       # mshr miss rate for demand accesses
system.l2.demand_mshr_miss_rate::.cpu.data     0.282572                       # mshr miss rate for demand accesses
system.l2.demand_mshr_miss_rate::total       0.246520                       # mshr miss rate for demand accesses
system.l2.overall_mshr_miss_rate::.cpu.inst     0.179483                       # mshr miss rate for overall accesses
system.l2.overall_mshr_miss_rate::.cpu.data     0.282572                       # mshr miss rate for overall accesses
system.l2.overall_mshr_miss_rate::total      0.246520                       # mshr miss rate for overall accesses
system.l2.demand_avg_mshr_miss_latency::.cpu.inst 68583.441850                       # average overall mshr miss latency
system.l2.demand_avg_mshr_miss_latency::.cpu.data 65557.377049                       # average overall mshr miss latency
system.l2.demand_avg_mshr_miss_latency::total 66327.884302                       # average overall mshr miss latency
system.l2.overall_avg_mshr_miss_latency::.cpu.inst 68583.441850                       # average overall mshr miss latency
system.l2.overall_avg_mshr_miss_latency::.cpu.data 65557.377049                       # average overall mshr miss latency
system.l2.overall_avg_mshr_miss_latency::total 66327.884302                       # average overall mshr miss latency
system.l2.replacements                              0                       # number of replacements
system.l2.WritebackDirty_hits::.writebacks         9441                       # number of WritebackDirty hits
system.l2.WritebackDirty_hits::total             9441                       # number of WritebackDirty hits
system.l2.WritebackDirty_accesses::.writebacks         9441                       # number of WritebackDirty accesses(hits+misses)
system.l2.WritebackDirty_accesses::total         9441                       # number of WritebackDirty accesses(hits+misses)
system.l2.WritebackClean_hits::.writebacks        12628                       # number of WritebackClean hits
system.l2.WritebackClean_hits::total            12628                       # number of WritebackClean hits
system.l2.WritebackClean_accesses::.writebacks        12628                       # number of WritebackClean accesses(hits+misses)
system.l2.WritebackClean_accesses::total        12628                       # number of WritebackClean accesses(hits+misses)
system.l2.ReadExReq_hits::.cpu.data               807                       # number of ReadExReq hits
system.l2.ReadExReq_hits::total                   807                       # number of ReadExReq hits
system.l2.ReadExReq_misses::.cpu.data            3767                       # number of ReadExReq misses
system.l2.ReadExReq_misses::total                3767                       # number of ReadExReq misses
system.l2.ReadExReq_miss_latency::.cpu.data    286823500                       # number of ReadExReq miss cycles
system.l2.ReadExReq_miss_latency::total     286823500                       # number of ReadExReq miss cycles
system.l2.ReadExReq_accesses::.cpu.data          4574                       # number of ReadExReq accesses(hits+misses)
system.l2.ReadExReq_accesses::total              4574                       # number of ReadExReq accesses(hits+misses)
system.l2.ReadExReq_miss_rate::.cpu.data     0.823568                       # miss rate for ReadExReq accesses
system.l2.ReadExReq_miss_rate::total         0.823568                       # miss rate for ReadExReq accesses
system.l2.ReadExReq_avg_miss_latency::.cpu.data 76141.093709                       # average ReadExReq miss latency
system.l2.ReadExReq_avg_miss_latency::total 76141.093709                       # average ReadExReq miss latency
system.l2.ReadExReq_mshr_misses::.cpu.data         3767                       # number of ReadExReq MSHR misses
system.l2.ReadExReq_mshr_misses::total           3767                       # number of ReadExReq MSHR misses
system.l2.ReadExReq_mshr_miss_latency::.cpu.data    249153500                       # number of ReadExReq MSHR miss cycles
system.l2.ReadExReq_mshr_miss_latency::total    249153500                       # number of ReadExReq MSHR miss cycles
system.l2.ReadExReq_mshr_miss_rate::.cpu.data     0.823568                       # mshr miss rate for ReadExReq accesses
system.l2.ReadExReq_mshr_miss_rate::total     0.823568                       # mshr miss rate for ReadExReq accesses
system.l2.ReadExReq_avg_mshr_miss_latency::.cpu.data 66141.093709                       # average ReadExReq mshr miss latency
system.l2.ReadExReq_avg_mshr_miss_latency::total 66141.093709                       # average ReadExReq mshr miss latency
system.l2.ReadCleanReq_hits::.cpu.inst          10574                       # number of ReadCleanReq hits
system.l2.ReadCleanReq_hits::total              10574                       # number of ReadCleanReq hits
system.l2.ReadCleanReq_misses::.cpu.inst         2313                       # number of ReadCleanReq misses
system.l2.ReadCleanReq_misses::total             2313                       # number of ReadCleanReq misses
system.l2.ReadCleanReq_miss_latency::.cpu.inst    181754000                       # number of ReadCleanReq miss cycles
system.l2.ReadCleanReq_miss_latency::total    181754000                       # number of ReadCleanReq miss cycles
system.l2.ReadCleanReq_accesses::.cpu.inst        12887                       # number of ReadCleanReq accesses(hits+misses)
system.l2.ReadCleanReq_accesses::total          12887                       # number of ReadCleanReq accesses(hits+misses)
system.l2.ReadCleanReq_miss_rate::.cpu.inst     0.179483                       # miss rate for ReadCleanReq accesses
system.l2.ReadCleanReq_miss_rate::total      0.179483                       # miss rate for ReadCleanReq accesses
system.l2.ReadCleanReq_avg_miss_latency::.cpu.inst 78579.334198                       # average ReadCleanReq miss latency
system.l2.ReadCleanReq_avg_miss_latency::total 78579.334198                       # average ReadCleanReq miss latency
system.l2.ReadCleanReq_mshr_misses::.cpu.inst         2313                       # number of ReadCleanReq MSHR misses
system.l2.ReadCleanReq_mshr_misses::total         2313                       # number of ReadCleanReq MSHR misses
system.l2.ReadCleanReq_mshr_miss_latency::.cpu.inst    158633501                       # number of ReadCleanReq MSHR miss cycles
system.l2.ReadCleanReq_mshr_miss_latency::total    158633501                       # number of ReadCleanReq MSHR miss cycles
system.l2.ReadCleanReq_mshr_miss_rate::.cpu.inst     0.179483                       # mshr miss rate for ReadCleanReq accesses
system.l2.ReadCleanReq_mshr_miss_rate::total     0.179483                       # mshr miss rate for ReadCleanReq accesses
system.l2.ReadCleanReq_avg_mshr_miss_latency::.cpu.inst 68583.441850                       # average ReadCleanReq mshr miss latency
system.l2.ReadCleanReq_avg_mshr_miss_latency::total 68583.441850                       # average ReadCleanReq mshr miss latency
[...]
system.cpu.dcache.demand_accesses::total      2373470                       # number of demand (read+write) accesses
system.cpu.dcache.overall_accesses::.cpu.data      2375129                       # number of overall (read+write) accesses
system.cpu.dcache.overall_accesses::total      2375129                       # number of overall (read+write) accesses
system.cpu.dcache.demand_miss_rate::.cpu.data     0.028273                       # miss rate for demand accesses
system.cpu.dcache.demand_miss_rate::total     0.028273                       # miss rate for demand accesses
system.cpu.dcache.overall_miss_rate::.cpu.data     0.028265                       # miss rate for overall accesses
system.cpu.dcache.overall_miss_rate::total     0.028265                       # miss rate for overall accesses
system.cpu.dcache.demand_avg_miss_latency::.cpu.data 40184.750868                       # average overall miss latency
system.cpu.dcache.demand_avg_miss_latency::total 40184.750868                       # average overall miss latency
system.cpu.dcache.overall_avg_miss_latency::.cpu.data 40167.990511                       # average overall miss latency
system.cpu.dcache.overall_avg_miss_latency::total 40167.990511                       # average overall miss latency
system.cpu.dcache.blocked_cycles::no_mshrs        57875                       # number of cycles access was blocked
system.cpu.dcache.blocked_cycles::no_targets        33743                       # number of cycles access was blocked
system.cpu.dcache.blocked::no_mshrs              2020                       # number of cycles access was blocked
system.cpu.dcache.blocked::no_targets             271                       # number of cycles access was blocked
system.cpu.dcache.avg_blocked_cycles::no_mshrs    28.650990                       # average number of cycles each access was blocked
system.cpu.dcache.avg_blocked_cycles::no_targets   124.512915                       # average number of cycles each access was blocked
system.cpu.dcache.writebacks::.writebacks         9441                       # number of writebacks
system.cpu.dcache.writebacks::total              9441                       # number of writebacks
system.cpu.dcache.demand_mshr_hits::.cpu.data        43067                       # number of demand (read+write) MSHR hits
system.cpu.dcache.demand_mshr_hits::total        43067                       # number of demand (read+write) MSHR hits
system.cpu.dcache.overall_mshr_hits::.cpu.data        43067                       # number of overall MSHR hits
system.cpu.dcache.overall_mshr_hits::total        43067                       # number of overall MSHR hits
system.cpu.dcache.demand_mshr_misses::.cpu.data        24038                       # number of demand (read+write) MSHR misses
system.cpu.dcache.demand_mshr_misses::total        24038                       # number of demand (read+write) MSHR misses
system.cpu.dcache.overall_mshr_misses::.cpu.data        24065                       # number of overall MSHR misses
system.cpu.dcache.overall_mshr_misses::total        24065                       # number of overall MSHR misses
system.cpu.dcache.demand_mshr_miss_latency::.cpu.data    731598380                       # number of demand (read+write) MSHR miss cycles
system.cpu.dcache.demand_mshr_miss_latency::total    731598380                       # number of demand (read+write) MSHR miss cycles
system.cpu.dcache.overall_mshr_miss_latency::.cpu.data    732143380                       # number of overall MSHR miss cycles
system.cpu.dcache.overall_mshr_miss_latency::total    732143380                       # number of overall MSHR miss cycles
system.cpu.dcache.demand_mshr_miss_rate::.cpu.data     0.010128                       # mshr miss rate for demand accesses
system.cpu.dcache.demand_mshr_miss_rate::total     0.010128                       # mshr miss rate for demand accesses
system.cpu.dcache.overall_mshr_miss_rate::.cpu.data     0.010132                       # mshr miss rate for overall accesses
system.cpu.dcache.overall_mshr_miss_rate::total     0.010132                       # mshr miss rate for overall accesses
system.cpu.dcache.demand_avg_mshr_miss_latency::.cpu.data 30435.076961                       # average overall mshr miss latency
system.cpu.dcache.demand_avg_mshr_miss_latency::total 30435.076961                       # average overall mshr miss latency
system.cpu.dcache.overall_avg_mshr_miss_latency::.cpu.data 30423.576979                       # average overall mshr miss latency
system.cpu.dcache.overall_avg_mshr_miss_latency::total 30423.576979                       # average overall mshr miss latency
system.cpu.dcache.replacements                  23046                       # number of replacements
system.cpu.dcache.ReadReq_hits::.cpu.data      1238845                       # number of ReadReq hits
system.cpu.dcache.ReadReq_hits::total         1238845                       # number of ReadReq hits
system.cpu.dcache.ReadReq_misses::.cpu.data        40070                       # number of ReadReq misses
system.cpu.dcache.ReadReq_misses::total         40070                       # number of ReadReq misses
system.cpu.dcache.ReadReq_miss_latency::.cpu.data   1142741000                       # number of ReadReq miss cycles
system.cpu.dcache.ReadReq_miss_latency::total   1142741000                       # number of ReadReq miss cycles
system.cpu.dcache.ReadReq_accesses::.cpu.data      1278915                       # number of ReadReq accesses(hits+misses)
system.cpu.dcache.ReadReq_accesses::total      1278915                       # number of ReadReq accesses(hits+misses)
system.cpu.dcache.ReadReq_miss_rate::.cpu.data     0.031331                       # miss rate for ReadReq accesses
system.cpu.dcache.ReadReq_miss_rate::total     0.031331                       # miss rate for ReadReq accesses
system.cpu.dcache.ReadReq_avg_miss_latency::.cpu.data 28518.617420                       # average ReadReq miss latency
system.cpu.dcache.ReadReq_avg_miss_latency::total 28518.617420                       # average ReadReq miss latency
system.cpu.dcache.ReadReq_mshr_hits::.cpu.data        20714                       # number of ReadReq MSHR hits
system.cpu.dcache.ReadReq_mshr_hits::total        20714                       # number of ReadReq MSHR hits
system.cpu.dcache.ReadReq_mshr_misses::.cpu.data        19356                       # number of ReadReq MSHR misses
system.cpu.dcache.ReadReq_mshr_misses::total        19356                       # number of ReadReq MSHR misses
system.cpu.dcache.ReadReq_mshr_miss_latency::.cpu.data    425899500                       # number of ReadReq MSHR miss cycles
system.cpu.dcache.ReadReq_mshr_miss_latency::total    425899500                       # number of ReadReq MSHR miss cycles
system.cpu.dcache.ReadReq_mshr_miss_rate::.cpu.data     0.015135                       # mshr miss rate for ReadReq accesses
system.cpu.dcache.ReadReq_mshr_miss_rate::total     0.015135                       # mshr miss rate for ReadReq accesses
system.cpu.dcache.ReadReq_avg_mshr_miss_latency::.cpu.data 22003.487291                       # average ReadReq mshr miss latency
system.cpu.dcache.ReadReq_avg_mshr_miss_latency::total 22003.487291                       # average ReadReq mshr miss latency
system.cpu.dcache.WriteReq_hits::.cpu.data      1067359                       # number of WriteReq hits
system.cpu.dcache.WriteReq_hits::total        1067359                       # number of WriteReq hits
system.cpu.dcache.WriteReq_misses::.cpu.data        26957                       # number of WriteReq misses
system.cpu.dcache.WriteReq_misses::total        26957                       # number of WriteReq misses
system.cpu.dcache.WriteReq_miss_latency::.cpu.data   1551533765                       # number of WriteReq miss cycles
system.cpu.dcache.WriteReq_miss_latency::total   1551533765                       # number of WriteReq miss cycles
system.cpu.dcache.WriteReq_accesses::.cpu.data      1094316                       # number of WriteReq accesses(hits+misses)
system.cpu.dcache.WriteReq_accesses::total      1094316                       # number of WriteReq accesses(hits+misses)
system.cpu.dcache.WriteReq_miss_rate::.cpu.data     0.024634                       # miss rate for WriteReq accesses
system.cpu.dcache.WriteReq_miss_rate::total     0.024634                       # miss rate for WriteReq accesses
system.cpu.dcache.WriteReq_avg_miss_latency::.cpu.data 57555.876581                       # average WriteReq miss latency
system.cpu.dcache.WriteReq_avg_miss_latency::total 57555.876581                       # average WriteReq miss latency
system.cpu.dcache.WriteReq_mshr_hits::.cpu.data        22353                       # number of WriteReq MSHR hits
system.cpu.dcache.WriteReq_mshr_hits::total        22353                       # number of WriteReq MSHR hits
system.cpu.dcache.WriteReq_mshr_misses::.cpu.data         4604                       # number of WriteReq MSHR misses
system.cpu.dcache.WriteReq_mshr_misses::total         4604                       # number of WriteReq MSHR misses
system.cpu.dcache.WriteReq_mshr_miss_latency::.cpu.data    303453938                       # number of WriteReq MSHR miss cycles
system.cpu.dcache.WriteReq_mshr_miss_latency::total    303453938                       # number of WriteReq MSHR miss cycles
system.cpu.dcache.WriteReq_mshr_miss_rate::.cpu.data     0.004207                       # mshr miss rate for WriteReq accesses
system.cpu.dcache.WriteReq_mshr_miss_rate::total     0.004207                       # mshr miss rate for WriteReq accesses
system.cpu.dcache.WriteReq_avg_mshr_miss_latency::.cpu.data 65910.933536                       # average WriteReq mshr miss latency
system.cpu.dcache.WriteReq_avg_mshr_miss_latency::total 65910.933536                       # average WriteReq mshr miss latency
system.cpu.dcache.SoftPFReq_hits::.cpu.data         1631                       # number of SoftPFReq hits
system.cpu.dcache.SoftPFReq_hits::total          1631                       # number of SoftPFReq hits
system.cpu.dcache.SoftPFReq_misses::.cpu.data           28                       # number of SoftPFReq misses
system.cpu.dcache.SoftPFReq_misses::total           28                       # number of SoftPFReq misses
system.cpu.dcache.SoftPFReq_accesses::.cpu.data         1659                       # number of SoftPFReq accesses(hits+misses)
system.cpu.dcache.SoftPFReq_accesses::total         1659                       # number of SoftPFReq accesses(hits+misses)
system.cpu.dcache.SoftPFReq_miss_rate::.cpu.data     0.016878                       # miss rate for SoftPFReq accesses
system.cpu.dcache.SoftPFReq_miss_rate::total     0.016878                       # miss rate for SoftPFReq accesses
system.cpu.dcache.SoftPFReq_mshr_misses::.cpu.data           27                       # number of SoftPFReq MSHR misses
system.cpu.dcache.SoftPFReq_mshr_misses::total           27                       # number of SoftPFReq MSHR misses
system.cpu.dcache.SoftPFReq_mshr_miss_latency::.cpu.data       545000                       # number of SoftPFReq MSHR miss cycles
system.cpu.dcache.SoftPFReq_mshr_miss_latency::total       545000                       # number of SoftPFReq MSHR miss cycles
system.cpu.dcache.SoftPFReq_mshr_miss_rate::.cpu.data     0.016275                       # mshr miss rate for SoftPFReq accesses
system.cpu.dcache.SoftPFReq_mshr_miss_rate::total     0.016275                       # mshr miss rate for SoftPFReq accesses
system.cpu.dcache.SoftPFReq_avg_mshr_miss_latency::.cpu.data 20185.185185                       # average SoftPFReq mshr miss latency
system.cpu.dcache.SoftPFReq_avg_mshr_miss_latency::total 20185.185185                       # average SoftPFReq mshr miss latency
system.cpu.dcache.WriteLineReq_hits::.cpu.data          161                       # number of WriteLineReq hits
system.cpu.dcache.WriteLineReq_hits::total          161                       # number of WriteLineReq hits
system.cpu.dcache.WriteLineReq_misses::.cpu.data           78                       # number of WriteLineReq misses
system.cpu.dcache.WriteLineReq_misses::total           78                       # number of WriteLineReq misses
system.cpu.dcache.WriteLineReq_miss_latency::.cpu.data      2322942                       # number of WriteLineReq miss cycles
system.cpu.dcache.WriteLineReq_miss_latency::total      2322942                       # number of WriteLineReq miss cycles
system.cpu.dcache.WriteLineReq_accesses::.cpu.data          239                       # number of WriteLineReq accesses(hits+misses)
system.cpu.dcache.WriteLineReq_accesses::total          239                       # number of WriteLineReq accesses(hits+misses)
system.cpu.dcache.WriteLineReq_miss_rate::.cpu.data     0.326360                       # miss rate for WriteLineReq accesses
system.cpu.dcache.WriteLineReq_miss_rate::total     0.326360                       # miss rate for WriteLineReq accesses
system.cpu.dcache.WriteLineReq_avg_miss_latency::.cpu.data 29781.307692                       # average WriteLineReq miss latency
system.cpu.dcache.WriteLineReq_avg_miss_latency::total 29781.307692                       # average WriteLineReq miss latency
system.cpu.dcache.WriteLineReq_mshr_misses::.cpu.data           78                       # number of WriteLineReq MSHR misses
system.cpu.dcache.WriteLineReq_mshr_misses::total           78                       # number of WriteLineReq MSHR misses
system.cpu.dcache.WriteLineReq_mshr_miss_latency::.cpu.data      2244942                       # number of WriteLineReq MSHR miss cycles
system.cpu.dcache.WriteLineReq_mshr_miss_latency::total      2244942                       # number of WriteLineReq MSHR miss cycles
system.cpu.dcache.WriteLineReq_mshr_miss_rate::.cpu.data     0.326360                       # mshr miss rate for WriteLineReq accesses
system.cpu.dcache.WriteLineReq_mshr_miss_rate::total     0.326360                       # mshr miss rate for WriteLineReq accesses
system.cpu.dcache.WriteLineReq_avg_mshr_miss_latency::.cpu.data 28781.307692                       # average WriteLineReq mshr miss latency
system.cpu.dcache.WriteLineReq_avg_mshr_miss_latency::total 28781.307692                       # average WriteLineReq mshr miss latency
system.cpu.dcache.LoadLockedReq_hits::.cpu.data          293                       # number of LoadLockedReq hits
system.cpu.dcache.LoadLockedReq_hits::total          293                       # number of LoadLockedReq hits
system.cpu.dcache.LoadLockedReq_misses::.cpu.data            9                       # number of LoadLockedReq misses
system.cpu.dcache.LoadLockedReq_misses::total            9                       # number of LoadLockedReq misses
system.cpu.dcache.LoadLockedReq_miss_latency::.cpu.data       303000                       # number of LoadLockedReq miss cycles
system.cpu.dcache.LoadLockedReq_miss_latency::total       303000                       # number of LoadLockedReq miss cycles
system.cpu.dcache.LoadLockedReq_accesses::.cpu.data          302                       # number of LoadLockedReq accesses(hits+misses)
system.cpu.dcache.LoadLockedReq_accesses::total          302                       # number of LoadLockedReq accesses(hits+misses)
system.cpu.dcache.LoadLockedReq_miss_rate::.cpu.data     0.029801                       # miss rate for LoadLockedReq accesses
system.cpu.dcache.LoadLockedReq_miss_rate::total     0.029801                       # miss rate for LoadLockedReq accesses
system.cpu.dcache.LoadLockedReq_avg_miss_latency::.cpu.data 33666.666667                       # average LoadLockedReq miss latency
system.cpu.dcache.LoadLockedReq_avg_miss_latency::total 33666.666667                       # average LoadLockedReq miss latency
system.cpu.dcache.LoadLockedReq_mshr_hits::.cpu.data            4                       # number of LoadLockedReq MSHR hits
system.cpu.dcache.LoadLockedReq_mshr_hits::total            4                       # number of LoadLockedReq MSHR hits
system.cpu.dcache.LoadLockedReq_mshr_misses::.cpu.data            5                       # number of LoadLockedReq MSHR misses
system.cpu.dcache.LoadLockedReq_mshr_misses::total            5                       # number of LoadLockedReq MSHR misses
system.cpu.dcache.LoadLockedReq_mshr_miss_latency::.cpu.data       156500                       # number of LoadLockedReq MSHR miss cycles
system.cpu.dcache.LoadLockedReq_mshr_miss_latency::total       156500                       # number of LoadLockedReq MSHR miss cycles
system.cpu.dcache.LoadLockedReq_mshr_miss_rate::.cpu.data     0.016556                       # mshr miss rate for LoadLockedReq accesses
system.cpu.dcache.LoadLockedReq_mshr_miss_rate::total     0.016556                       # mshr miss rate for LoadLockedReq accesses
system.cpu.dcache.LoadLockedReq_avg_mshr_miss_latency::.cpu.data        31300                       # average LoadLockedReq mshr miss latency
system.cpu.dcache.LoadLockedReq_avg_mshr_miss_latency::total        31300                       # average LoadLockedReq mshr miss latency
system.cpu.dcache.StoreCondReq_hits::.cpu.data          267                       # number of StoreCondReq hits
system.cpu.dcache.StoreCondReq_hits::total          267                       # number of StoreCondReq hits
system.cpu.dcache.StoreCondReq_accesses::.cpu.data          267                       # number of StoreCondReq accesses(hits+misses)
system.cpu.dcache.StoreCondReq_accesses::total          267                       # number of StoreCondReq accesses(hits+misses)
system.cpu.dcache.power_state.pwrStateResidencyTicks::UNDEFINED   2931704500                       # Cumulative time (in ticks) in various power states
system.cpu.dcache.tags.tagsinuse           941.627796                       # Cycle average of tags in use
system.cpu.dcache.tags.total_refs             2332626                       # Total number of references to valid blocks.
system.cpu.dcache.tags.sampled_refs             24070                       # Sample count of references to valid blocks.
system.cpu.dcache.tags.avg_refs             96.910096                       # Average number of references to valid blocks.
system.cpu.dcache.tags.warmup_cycle            176500                       # Cycle when the warmup percentage was hit.
system.cpu.dcache.tags.occ_blocks::.cpu.data   941.627796                       # Average occupied blocks per requestor
system.cpu.dcache.tags.occ_percent::.cpu.data     0.919558                       # Average percentage of cache occupancy
system.cpu.dcache.tags.occ_percent::total     0.919558                       # Average percentage of cache occupancy
system.cpu.dcache.tags.occ_task_id_blocks::1024         1024                       # Occupied blocks per task id
system.cpu.dcache.tags.age_task_id_blocks_1024::0          189                       # Occupied blocks per task id
system.cpu.dcache.tags.age_task_id_blocks_1024::1          277                       # Occupied blocks per task id
system.cpu.dcache.tags.age_task_id_blocks_1024::2          554                       # Occupied blocks per task id
system.cpu.dcache.tags.age_task_id_blocks_1024::3            4                       # Occupied blocks per task id
system.cpu.dcache.tags.occ_task_id_percent::1024            1                       # Percentage of cache occupancy per task id
system.cpu.dcache.tags.tag_accesses           4775466                       # Number of tag accesses
system.cpu.dcache.tags.data_accesses          4775466                       # Number of data accesses
system.cpu.dcache.tags.power_state.pwrStateResidencyTicks::UNDEFINED   2931704500                       # Cumulative time (in ticks) in various power states
system.cpu.power_state.pwrStateResidencyTicks::ON   2931704500                       # Cumulative time (in ticks) in various power states

---------- End Simulation Statistics   ----------
