
---------- Begin Simulation Statistics ----------
final_tick                                26868235500                       # Number of ticks from beginning of simulation (restored from checkpoints and never reset)
host_inst_rate                                  63031                       # Simulator instruction rate (inst/s)
host_mem_usage                                 869836                       # Number of bytes of host memory used
host_op_rate                                    64429                       # Simulator op (including micro ops) rate (op/s)
host_seconds                                   158.65                       # Real time elapsed on the host
host_tick_rate                              169352613                       # Simulator tick rate (ticks/s)
sim_freq                                 1000000000000                       # Frequency of simulated ticks
sim_insts                                    10000000                       # Number of instructions simulated
sim_ops                                      10221810                       # Number of ops (including micro ops) simulated
sim_seconds                                  0.026868                       # Number of seconds simulated
sim_ticks                                 26868235500                       # Number of ticks simulated
system.cpu.branchPred.BTBCorrect                    0                       # Number of correct BTB predictions (this stat may not work properly.
system.cpu.branchPred.BTBHitPct             99.736399                       # BTB Hit Percentage
system.cpu.branchPred.BTBHits                  839963                       # Number of BTB hits
system.cpu.branchPred.BTBLookups               842183                       # Number of BTB lookups
system.cpu.branchPred.RASInCorrect                  4                       # Number of incorrect RAS predictions.
system.cpu.branchPred.condIncorrect              2751                       # Number of conditional branches incorrect
system.cpu.branchPred.condPredicted           1050212                       # Number of conditional branches predicted
system.cpu.branchPred.indirectHits                620                       # Number of indirect target hits.
system.cpu.branchPred.indirectLookups            1678                       # Number of indirect predictor lookups.
system.cpu.branchPred.indirectMisses             1058                       # Number of indirect misses.
system.cpu.branchPred.lookups                 1058980                       # Number of BP lookups
system.cpu.branchPred.usedRAS                    2930                       # Number of times the RAS was used to get a target.
system.cpu.branchPredindirectMispredicted          212                       # Number of mispredicted indirect branches.
system.cpu.cc_regfile_reads                   2957194                       # number of cc regfile reads
system.cpu.cc_regfile_writes                  2956911                       # number of cc regfile writes
system.cpu.commit.amos                              0                       # Number of atomic instructions committed
system.cpu.commit.branchMispredicts              2226                       # The number of times a branch was mispredicted
system.cpu.commit.branches                     934981                       # Number of branches committed
system.cpu.commit.bw_lim_events                439217                       # number cycles where commit BW limit reached
system.cpu.commit.commitNonSpecStalls             162                       # The number of times commit has been forced to stall to communicate backwards
system.cpu.commit.commitSquashedInsts          624032                       # The number of squashed insts skipped by commit
system.cpu.commit.committedInsts             10000217                       # Number of instructions committed
system.cpu.commit.committedOps               10222027                       # Number of ops (including micro ops) committed
system.cpu.commit.committed_per_cycle::samples     53579666                       # Number of insts commited each cycle
system.cpu.commit.committed_per_cycle::mean     0.190782                       # Number of insts commited each cycle
system.cpu.commit.committed_per_cycle::stdev     0.984749                       # Number of insts commited each cycle
system.cpu.commit.committed_per_cycle::underflows            0      0.00%      0.00% # Number of insts commited each cycle
system.cpu.commit.committed_per_cycle::0     50521274     94.29%     94.29% # Number of insts commited each cycle
system.cpu.commit.committed_per_cycle::1      1167219      2.18%     96.47% # Number of insts commited each cycle
system.cpu.commit.committed_per_cycle::2       338959      0.63%     97.10% # Number of insts commited each cycle
system.cpu.commit.committed_per_cycle::3       397456      0.74%     97.84% # Number of insts commited each cycle
system.cpu.commit.committed_per_cycle::4       268661      0.50%     98.35% # Number of insts commited each cycle
system.cpu.commit.committed_per_cycle::5       209257      0.39%     98.74% # Number of insts commited each cycle
system.cpu.commit.committed_per_cycle::6       113504      0.21%     98.95% # Number of insts commited each cycle
system.cpu.commit.committed_per_cycle::7       124119      0.23%     99.18% # Number of insts commited each cycle
system.cpu.commit.committed_per_cycle::8       439217      0.82%    100.00% # Number of insts commited each cycle
system.cpu.commit.committed_per_cycle::overflows            0      0.00%    100.00% # Number of insts commited each cycle
system.cpu.commit.committed_per_cycle::min_value            0                       # Number of insts commited each cycle
system.cpu.commit.committed_per_cycle::max_value            8                       # Number of insts commited each cycle
system.cpu.commit.committed_per_cycle::total     53579666                       # Number of insts commited each cycle
system.cpu.commit.fp_insts                          0                       # Number of committed floating point instructions.
system.cpu.commit.function_calls                 1944                       # Number of function calls committed.
system.cpu.commit.int_insts                   9265875                       # Number of committed integer instructions.
system.cpu.commit.loads                         16474                       # Number of loads committed
system.cpu.commit.membars                         100                       # Number of memory barriers committed
system.cpu.commit.op_class_0::No_OpClass            4      0.00%      0.00% # Class of committed instruction
system.cpu.commit.op_class_0::IntAlu          3677170     35.97%     35.97% # Class of committed instruction
system.cpu.commit.op_class_0::IntMult             174      0.00%     35.97% # Class of committed instruction
system.cpu.commit.op_class_0::IntDiv               22      0.00%     35.97% # Class of committed instruction
system.cpu.commit.op_class_0::FloatAdd              4      0.00%     35.97% # Class of committed instruction
system.cpu.commit.op_class_0::FloatCmp              0      0.00%     35.97% # Class of committed instruction
system.cpu.commit.op_class_0::FloatCvt          30072      0.29%     36.27% # Class of committed instruction
system.cpu.commit.op_class_0::FloatMult         30069      0.29%     36.56% # Class of committed instruction
system.cpu.commit.op_class_0::FloatMultAcc            0      0.00%     36.56% # Class of committed instruction
system.cpu.commit.op_class_0::FloatDiv              3      0.00%     36.56% # Class of committed instruction
system.cpu.commit.op_class_0::FloatMisc            15      0.00%     36.56% # Class of committed instruction
system.cpu.commit.op_class_0::FloatSqrt             0      0.00%     36.56% # Class of committed instruction
system.cpu.commit.op_class_0::SimdAdd              19      0.00%     36.56% # Class of committed instruction
system.cpu.commit.op_class_0::SimdAddAcc            0      0.00%     36.56% # Class of committed instruction
system.cpu.commit.op_class_0::SimdAlu              12      0.00%     36.56% # Class of committed instruction
system.cpu.commit.op_class_0::SimdCmp              16      0.00%     36.56% # Class of committed instruction
system.cpu.commit.op_class_0::SimdCvt               0      0.00%     36.56% # Class of committed instruction
system.cpu.commit.op_class_0::SimdMisc             52      0.00%     36.56% # Class of committed instruction
system.cpu.commit.op_class_0::SimdMult              0      0.00%     36.56% # Class of committed instruction
system.cpu.commit.op_class_0::SimdMultAcc            0      0.00%     36.56% # Class of committed instruction
system.cpu.commit.op_class_0::SimdShift             0      0.00%     36.56% # Class of committed instruction
system.cpu.commit.op_class_0::SimdShiftAcc            0      0.00%     36.56% # Class of committed instruction
system.cpu.commit.op_class_0::SimdDiv               0      0.00%     36.56% # Class of committed instruction
system.cpu.commit.op_class_0::SimdSqrt              0      0.00%     36.56% # Class of committed instruction
system.cpu.commit.op_class_0::SimdFloatAdd            0      0.00%     36.56% # Class of committed instruction
system.cpu.commit.op_class_0::SimdFloatAlu            0      0.00%     36.56% # Class of committed instruction
system.cpu.commit.op_class_0::SimdFloatCmp            0      0.00%     36.56% # Class of committed instruction
system.cpu.commit.op_class_0::SimdFloatCvt            0      0.00%     36.56% # Class of committed instruction
system.cpu.commit.op_class_0::SimdFloatDiv            0      0.00%     36.56% # Class of committed instruction
system.cpu.commit.op_class_0::SimdFloatMisc            0      0.00%     36.56% # Class of committed instruction
system.cpu.commit.op_class_0::SimdFloatMult            0      0.00%     36.56% # Class of committed instruction
system.cpu.commit.op_class_0::SimdFloatMultAcc            0      0.00%     36.56% # Class of committed instruction
system.cpu.commit.op_class_0::SimdFloatSqrt            0      0.00%     36.56% # Class of committed instruction
system.cpu.commit.op_class_0::SimdReduceAdd            0      0.00%     36.56% # Class of committed instruction
system.cpu.commit.op_class_0::SimdReduceAlu            0      0.00%     36.56% # Class of committed instruction
system.cpu.commit.op_class_0::SimdReduceCmp            0      0.00%     36.56% # Class of committed instruction
system.cpu.commit.op_class_0::SimdFloatReduceAdd            0      0.00%     36.56% # Class of committed instruction
system.cpu.commit.op_class_0::SimdFloatReduceCmp            0      0.00%     36.56% # Class of committed instruction
system.cpu.commit.op_class_0::SimdAes               0      0.00%     36.56% # Class of committed instruction
system.cpu.commit.op_class_0::SimdAesMix            0      0.00%     36.56% # Class of committed instruction
system.cpu.commit.op_class_0::SimdSha1Hash            0      0.00%     36.56% # Class of committed instruction
system.cpu.commit.op_class_0::SimdSha1Hash2            0      0.00%     36.56% # Class of committed instruction
system.cpu.commit.op_class_0::SimdSha256Hash            0      0.00%     36.56% # Class of committed instruction
system.cpu.commit.op_class_0::SimdSha256Hash2            0      0.00%     36.56% # Class of committed instruction
system.cpu.commit.op_class_0::SimdShaSigma2            0      0.00%     36.56% # Class of committed instruction
system.cpu.commit.op_class_0::SimdShaSigma3            0      0.00%     36.56% # Class of committed instruction
system.cpu.commit.op_class_0::SimdPredAlu            0      0.00%     36.56% # Class of committed instruction
system.cpu.commit.op_class_0::MemRead           16474      0.16%     36.73% # Class of committed instruction
system.cpu.commit.op_class_0::MemWrite        6467921     63.27%    100.00% # Class of committed instruction
system.cpu.commit.op_class_0::FloatMemRead            0      0.00%    100.00% # Class of committed instruction
system.cpu.commit.op_class_0::FloatMemWrite            0      0.00%    100.00% # Class of committed instruction
system.cpu.commit.op_class_0::IprAccess             0      0.00%    100.00% # Class of committed instruction
system.cpu.commit.op_class_0::InstPrefetch            0      0.00%    100.00% # Class of committed instruction
system.cpu.commit.op_class_0::total          10222027                       # Class of committed instruction
system.cpu.commit.refs                        6484395                       # Number of memory references committed
system.cpu.commit.swp_count                         0                       # Number of s/w prefetches committed
system.cpu.commit.vec_insts                    298209                       # Number of committed Vector instructions.
system.cpu.committedInsts                    10000000                       # Number of Instructions Simulated
system.cpu.committedOps                      10221810                       # Number of Ops (including micro ops) Simulated
system.cpu.cpi                               5.373647                       # CPI: Cycles Per Instruction
system.cpu.cpi_total                         5.373647                       # CPI: Total CPI of All Threads
system.cpu.decode.BlockedCycles              51651135                       # Number of cycles decode is blocked
system.cpu.decode.BranchMispred                   555                       # Number of times decode detected a branch misprediction
system.cpu.decode.BranchResolved               805945                       # Number of times decode resolved a branch
system.cpu.decode.DecodedInsts               11016834                       # Number of instructions handled by decode
system.cpu.decode.IdleCycles                   451895                       # Number of cycles decode is idle
system.cpu.decode.RunCycles                   1131053                       # Number of cycles decode is running
system.cpu.decode.SquashCycles                  14667                       # Number of cycles decode is squashing
system.cpu.decode.SquashedInsts                  1902                       # Number of squashed instructions handled by decode
system.cpu.decode.UnblockCycles                415474                       # Number of cycles decode is unblocking
system.cpu.dtb.accesses                             0                       # DTB accesses
system.cpu.dtb.align_faults                         0                       # Number of TLB faults due to alignment restrictions
system.cpu.dtb.domain_faults                        0                       # Number of TLB faults due to domain restrictions
system.cpu.dtb.flush_entries                        0                       # Number of entries that have been flushed from TLB
system.cpu.dtb.flush_tlb                            0                       # Number of times complete TLB was flushed
system.cpu.dtb.flush_tlb_asid                       0                       # Number of times TLB was flushed by ASID
system.cpu.dtb.flush_tlb_mva                        0                       # Number of times TLB was flushed by MVA
system.cpu.dtb.flush_tlb_mva_asid                   0                       # Number of times TLB was flushed by MVA & ASID
system.cpu.dtb.hits                                 0                       # DTB hits
system.cpu.dtb.inst_accesses                        0                       # ITB inst accesses
system.cpu.dtb.inst_hits                            0                       # ITB inst hits
system.cpu.dtb.inst_misses                          0                       # ITB inst misses
system.cpu.dtb.misses                               0                       # DTB misses
system.cpu.dtb.perms_faults                         0                       # Number of TLB faults due to permissions restrictions
system.cpu.dtb.prefetch_faults                      0                       # Number of TLB faults due to prefetch
system.cpu.dtb.read_accesses                        0                       # DTB read accesses
system.cpu.dtb.read_hits                            0                       # DTB read hits
system.cpu.dtb.read_misses                          0                       # DTB read misses
system.cpu.dtb.stage2_mmu.stage2_tlb.accesses            0                       # DTB accesses
system.cpu.dtb.stage2_mmu.stage2_tlb.align_faults            0                       # Number of TLB faults due to alignment restrictions
system.cpu.dtb.stage2_mmu.stage2_tlb.domain_faults            0                       # Number of TLB faults due to domain restrictions
system.cpu.dtb.stage2_mmu.stage2_tlb.flush_entries            0                       # Number of entries that have been flushed from TLB
system.cpu.dtb.stage2_mmu.stage2_tlb.flush_tlb            0                       # Number of times complete TLB was flushed
system.cpu.dtb.stage2_mmu.stage2_tlb.flush_tlb_asid            0                       # Number of times TLB was flushed by ASID
system.cpu.dtb.stage2_mmu.stage2_tlb.flush_tlb_mva            0                       # Number of times TLB was flushed by MVA
system.cpu.dtb.stage2_mmu.stage2_tlb.flush_tlb_mva_asid            0                       # Number of times TLB was flushed by MVA & ASID
system.cpu.dtb.stage2_mmu.stage2_tlb.hits            0                       # DTB hits
system.cpu.dtb.stage2_mmu.stage2_tlb.inst_accesses            0                       # ITB inst accesses
system.cpu.dtb.stage2_mmu.stage2_tlb.inst_hits            0                       # ITB inst hits
system.cpu.dtb.stage2_mmu.stage2_tlb.inst_misses            0                       # ITB inst misses
system.cpu.dtb.stage2_mmu.stage2_tlb.misses            0                       # DTB misses
system.cpu.dtb.stage2_mmu.stage2_tlb.perms_faults            0                       # Number of TLB faults due to permissions restrictions
system.cpu.dtb.stage2_mmu.stage2_tlb.prefetch_faults            0                       # Number of TLB faults due to prefetch
system.cpu.dtb.stage2_mmu.stage2_tlb.read_accesses            0                       # DTB read accesses
system.cpu.dtb.stage2_mmu.stage2_tlb.read_hits            0                       # DTB read hits
system.cpu.dtb.stage2_mmu.stage2_tlb.read_misses            0                       # DTB read misses
system.cpu.dtb.stage2_mmu.stage2_tlb.walker.walkRequestOrigin_Requested::Data            0                       # Table walker requests started/completed, data/inst
system.cpu.dtb.stage2_mmu.stage2_tlb.walker.walkRequestOrigin_Requested::Inst            0                       # Table walker requests started/completed, data/inst
system.cpu.dtb.stage2_mmu.stage2_tlb.walker.walkRequestOrigin_Requested::total            0                       # Table walker requests started/completed, data/inst
system.cpu.dtb.stage2_mmu.stage2_tlb.walker.walkRequestOrigin_Completed::Data            0                       # Table walker requests started/completed, data/inst
system.cpu.dtb.stage2_mmu.stage2_tlb.walker.walkRequestOrigin_Completed::Inst            0                       # Table walker requests started/completed, data/inst
system.cpu.dtb.stage2_mmu.stage2_tlb.walker.walkRequestOrigin_Completed::total            0                       # Table walker requests started/completed, data/inst
system.cpu.dtb.stage2_mmu.stage2_tlb.walker.walkRequestOrigin::total            0                       # Table walker requests started/completed, data/inst
system.cpu.dtb.stage2_mmu.stage2_tlb.walker.walks            0                       # Table walker walks requested
system.cpu.dtb.stage2_mmu.stage2_tlb.write_accesses            0                       # DTB write accesses
system.cpu.dtb.stage2_mmu.stage2_tlb.write_hits            0                       # DTB write hits
system.cpu.dtb.stage2_mmu.stage2_tlb.write_misses            0                       # DTB write misses
system.cpu.dtb.walker.walkRequestOrigin_Requested::Data            0                       # Table walker requests started/completed, data/inst
system.cpu.dtb.walker.walkRequestOrigin_Requested::Inst            0                       # Table walker requests started/completed, data/inst
system.cpu.dtb.walker.walkRequestOrigin_Requested::total            0                       # Table walker requests started/completed, data/inst
system.cpu.dtb.walker.walkRequestOrigin_Completed::Data            0                       # Table walker requests started/completed, data/inst
system.cpu.dtb.walker.walkRequestOrigin_Completed::Inst            0                       # Table walker requests started/completed, data/inst
system.cpu.dtb.walker.walkRequestOrigin_Completed::total            0                       # Table walker requests started/completed, data/inst
system.cpu.dtb.walker.walkRequestOrigin::total            0                       # Table walker requests started/completed, data/inst
system.cpu.dtb.walker.walks                         0                       # Table walker walks requested
system.cpu.dtb.write_accesses                       0                       # DTB write accesses
system.cpu.dtb.write_hits                           0                       # DTB write hits
system.cpu.dtb.write_misses                         0                       # DTB write misses
system.cpu.fetch.Branches                     1058980                       # Number of branches that fetch encountered
system.cpu.fetch.CacheLines                   1721630                       # Number of cache lines fetched
system.cpu.fetch.Cycles                      51882894                       # Number of cycles fetch has run and was not squashing or blocked
system.cpu.fetch.IcacheSquashes                  2475                       # Number of outstanding Icache misses that were squashed
system.cpu.fetch.IcacheWaitRetryStallCycles           62                       # Number of stall cycles due to full MSHR
system.cpu.fetch.Insts                       11278999                       # Number of instructions fetch has processed
system.cpu.fetch.MiscStallCycles                   22                       # Number of cycles fetch has spent waiting on interrupts, or bad addresses, or out of MSHRs
system.cpu.fetch.PendingTrapStallCycles            96                       # Number of stall cycles due to pending traps
system.cpu.fetch.SquashCycles                   30414                       # Number of cycles fetch has spent squashing
system.cpu.fetch.branchRate                  0.019707                       # Number of branch fetches per cycle
system.cpu.fetch.icacheStallCycles            1765943                       # Number of cycles fetch is stalled on an Icache miss
system.cpu.fetch.predictedBranches             843513                       # Number of branches that fetch has predicted taken
system.cpu.fetch.rate                        0.209895                       # Number of inst fetches per cycle
system.cpu.fetch.rateDist::samples           53664224                       # Number of instructions fetched each cycle (Total)
system.cpu.fetch.rateDist::mean              0.214927                       # Number of instructions fetched each cycle (Total)
system.cpu.fetch.rateDist::stdev             1.175815                       # Number of instructions fetched each cycle (Total)
system.cpu.fetch.rateDist::underflows               0      0.00%      0.00% # Number of instructions fetched each cycle (Total)
system.cpu.fetch.rateDist::0                 51577206     96.11%     96.11% # Number of instructions fetched each cycle (Total)
system.cpu.fetch.rateDist::1                    86835      0.16%     96.27% # Number of instructions fetched each cycle (Total)
system.cpu.fetch.rateDist::2                    68845      0.13%     96.40% # Number of instructions fetched each cycle (Total)
system.cpu.fetch.rateDist::3                   668515      1.25%     97.65% # Number of instructions fetched each cycle (Total)
system.cpu.fetch.rateDist::4                    27562      0.05%     97.70% # Number of instructions fetched each cycle (Total)
system.cpu.fetch.rateDist::5                   165783      0.31%     98.01% # Number of instructions fetched each cycle (Total)
system.cpu.fetch.rateDist::6                    64167      0.12%     98.13% # Number of instructions fetched each cycle (Total)
system.cpu.fetch.rateDist::7                    62831      0.12%     98.24% # Number of instructions fetched each cycle (Total)
system.cpu.fetch.rateDist::8                   942480      1.76%    100.00% # Number of instructions fetched each cycle (Total)
system.cpu.fetch.rateDist::overflows                0      0.00%    100.00% # Number of instructions fetched each cycle (Total)
system.cpu.fetch.rateDist::min_value                0                       # Number of instructions fetched each cycle (Total)
system.cpu.fetch.rateDist::max_value                8                       # Number of instructions fetched each cycle (Total)
system.cpu.fetch.rateDist::total             53664224                       # Number of instructions fetched each cycle (Total)
system.cpu.icache.prefetcher.num_hwpf_issued         4386                       # number of hwpf issued
system.cpu.icache.prefetcher.pfBufferHit          208                       # number of redundant prefetches already in prefetch queue
system.cpu.icache.prefetcher.pfIdentified         4813                       # number of prefetch candidates identified
system.cpu.icache.prefetcher.pfInCache              0                       # number of redundant prefetches already in cache/mshr dropped
system.cpu.icache.prefetcher.pfRemovedFull            0                       # number of prefetches dropped due to prefetch queue size
system.cpu.icache.prefetcher.pfSpanPage          3917                       # number of prefetches that crossed the page
system.cpu.idleCycles                           72249                       # Total number of cycles that the CPU has spent unscheduled due to idling
system.cpu.iew.branchMispredicts                 2557                       # Number of branch mispredicts detected at execute
system.cpu.iew.exec_branches                   995756                       # Number of branches executed
system.cpu.iew.exec_nop                           287                       # number of nop insts executed
system.cpu.iew.exec_rate                     0.202591                       # Inst execution rate
system.cpu.iew.exec_refs                      6902115                       # number of memory reference insts executed
system.cpu.iew.exec_stores                    6876664                       # Number of stores executed
system.cpu.iew.exec_swp                             0                       # number of swp insts executed
system.cpu.iew.iewBlockCycles                   70761                       # Number of cycles IEW is blocking
system.cpu.iew.iewDispLoadInsts                 21115                       # Number of dispatched load instructions
system.cpu.iew.iewDispNonSpecInsts                198                       # Number of dispatched non-speculative instructions
system.cpu.iew.iewDispSquashedInsts               624                       # Number of squashed instructions skipped by dispatch
system.cpu.iew.iewDispStoreInsts              6882497                       # Number of dispatched store instructions
system.cpu.iew.iewDispatchedInsts            10896047                       # Number of instructions dispatched to IQ
system.cpu.iew.iewExecLoadInsts                 25451                       # Number of load instructions executed
system.cpu.iew.iewExecSquashedInsts              5083                       # Number of squashed instructions skipped in execute
system.cpu.iew.iewExecutedInsts              10886548                       # Number of executed instructions
system.cpu.iew.iewIQFullEvents                      9                       # Number of times the IQ has become full, causing a stall
system.cpu.iew.iewIdleCycles                        0                       # Number of cycles IEW is idle
system.cpu.iew.iewLSQFullEvents               9669394                       # Number of times the LSQ has become full, causing a stall
system.cpu.iew.iewSquashCycles                  14667                       # Number of cycles IEW is squashing
system.cpu.iew.iewUnblockCycles               9660778                       # Number of cycles IEW is unblocking
system.cpu.iew.lsq.thread0.blockedLoads             0                       # Number of blocked loads due to partial load-store forwarding
system.cpu.iew.lsq.thread0.cacheBlocked        497820                       # Number of times an access to memory failed due to the cache being blocked
system.cpu.iew.lsq.thread0.forwLoads              470                       # Number of loads that had data forwarded from stores
system.cpu.iew.lsq.thread0.ignoredResponses            6                       # Number of memory responses ignored because the instruction is squashed
system.cpu.iew.lsq.thread0.invAddrLoads             0                       # Number of loads ignored due to an invalid address
system.cpu.iew.lsq.thread0.invAddrSwpfs             0                       # Number of software prefetches ignored due to an invalid address
system.cpu.iew.lsq.thread0.memOrderViolation           49                       # Number of memory ordering violations
system.cpu.iew.lsq.thread0.rescheduledLoads          571                       # Number of loads that were rescheduled
system.cpu.iew.lsq.thread0.squashedLoads         4641                       # Number of loads squashed
system.cpu.iew.lsq.thread0.squashedStores       414566                       # Number of stores squashed
system.cpu.iew.memOrderViolationEvents             49                       # Number of memory order violations
system.cpu.iew.predictedNotTakenIncorrect         1761                       # Number of branches that were predicted not taken incorrectly
system.cpu.iew.predictedTakenIncorrect            796                       # Number of branches that were predicted taken incorrectly
system.cpu.iew.wb_consumers                   8003269                       # num instructions consuming a value
system.cpu.iew.wb_count                      10671125                       # cumulative count of insts written-back
system.cpu.iew.wb_fanout                     0.313090                       # average fanout of values written-back
system.cpu.iew.wb_producers                   2505742                       # num instructions producing a value
system.cpu.iew.wb_rate                       0.198583                       # insts written-back per cycle
system.cpu.iew.wb_sent                       10879884                       # cumulative count of insts sent to commit
system.cpu.int_regfile_reads                 24182279                       # number of integer regfile reads
system.cpu.int_regfile_writes                 2948170                       # number of integer regfile writes
system.cpu.ipc                               0.186093                       # IPC: Instructions Per Cycle
system.cpu.ipc_total                         0.186093                       # IPC: Total IPC of All Threads
system.cpu.iq.FU_type_0::No_OpClass                19      0.00%      0.00% # Type of FU issued
system.cpu.iq.FU_type_0::IntAlu               3921705     36.01%     36.01% # Type of FU issued
system.cpu.iq.FU_type_0::IntMult                  180      0.00%     36.01% # Type of FU issued
system.cpu.iq.FU_type_0::IntDiv                    25      0.00%     36.01% # Type of FU issued
system.cpu.iq.FU_type_0::FloatAdd                   5      0.00%     36.01% # Type of FU issued
system.cpu.iq.FU_type_0::FloatCmp                   0      0.00%     36.01% # Type of FU issued
system.cpu.iq.FU_type_0::FloatCvt               32429      0.30%     36.31% # Type of FU issued
system.cpu.iq.FU_type_0::FloatMult              32434      0.30%     36.60% # Type of FU issued
system.cpu.iq.FU_type_0::FloatMultAcc               0      0.00%     36.60% # Type of FU issued
system.cpu.iq.FU_type_0::FloatDiv                   3      0.00%     36.60% # Type of FU issued
system.cpu.iq.FU_type_0::FloatMisc                 21      0.00%     36.60% # Type of FU issued
system.cpu.iq.FU_type_0::FloatSqrt                  0      0.00%     36.60% # Type of FU issued
system.cpu.iq.FU_type_0::SimdAdd                   21      0.00%     36.60% # Type of FU issued
system.cpu.iq.FU_type_0::SimdAddAcc                 0      0.00%     36.60% # Type of FU issued
system.cpu.iq.FU_type_0::SimdAlu                   14      0.00%     36.60% # Type of FU issued
system.cpu.iq.FU_type_0::SimdCmp                   16      0.00%     36.60% # Type of FU issued
system.cpu.iq.FU_type_0::SimdCvt                    0      0.00%     36.60% # Type of FU issued
system.cpu.iq.FU_type_0::SimdMisc                  58      0.00%     36.61% # Type of FU issued
system.cpu.iq.FU_type_0::SimdMult                   0      0.00%     36.61% # Type of FU issued
system.cpu.iq.FU_type_0::SimdMultAcc                0      0.00%     36.61% # Type of FU issued
system.cpu.iq.FU_type_0::SimdShift                  0      0.00%     36.61% # Type of FU issued
system.cpu.iq.FU_type_0::SimdShiftAcc               0      0.00%     36.61% # Type of FU issued
system.cpu.iq.FU_type_0::SimdDiv                    0      0.00%     36.61% # Type of FU issued
system.cpu.iq.FU_type_0::SimdSqrt                   0      0.00%     36.61% # Type of FU issued
system.cpu.iq.FU_type_0::SimdFloatAdd               0      0.00%     36.61% # Type of FU issued
system.cpu.iq.FU_type_0::SimdFloatAlu               0      0.00%     36.61% # Type of FU issued
system.cpu.iq.FU_type_0::SimdFloatCmp               0      0.00%     36.61% # Type of FU issued
system.cpu.iq.FU_type_0::SimdFloatCvt               0      0.00%     36.61% # Type of FU issued
system.cpu.iq.FU_type_0::SimdFloatDiv               0      0.00%     36.61% # Type of FU issued
system.cpu.iq.FU_type_0::SimdFloatMisc              0      0.00%     36.61% # Type of FU issued
system.cpu.iq.FU_type_0::SimdFloatMult              0      0.00%     36.61% # Type of FU issued
system.cpu.iq.FU_type_0::SimdFloatMultAcc            0      0.00%     36.61% # Type of FU issued
system.cpu.iq.FU_type_0::SimdFloatSqrt              0      0.00%     36.61% # Type of FU issued
system.cpu.iq.FU_type_0::SimdReduceAdd              0      0.00%     36.61% # Type of FU issued
system.cpu.iq.FU_type_0::SimdReduceAlu              0      0.00%     36.61% # Type of FU issued
system.cpu.iq.FU_type_0::SimdReduceCmp              0      0.00%     36.61% # Type of FU issued
system.cpu.iq.FU_type_0::SimdFloatReduceAdd            0      0.00%     36.61% # Type of FU issued
system.cpu.iq.FU_type_0::SimdFloatReduceCmp            0      0.00%     36.61% # Type of FU issued
system.cpu.iq.FU_type_0::SimdAes                    0      0.00%     36.61% # Type of FU issued
system.cpu.iq.FU_type_0::SimdAesMix                 0      0.00%     36.61% # Type of FU issued
system.cpu.iq.FU_type_0::SimdSha1Hash               0      0.00%     36.61% # Type of FU issued
system.cpu.iq.FU_type_0::SimdSha1Hash2              0      0.00%     36.61% # Type of FU issued
system.cpu.iq.FU_type_0::SimdSha256Hash             0      0.00%     36.61% # Type of FU issued
system.cpu.iq.FU_type_0::SimdSha256Hash2            0      0.00%     36.61% # Type of FU issued
system.cpu.iq.FU_type_0::SimdShaSigma2              0      0.00%     36.61% # Type of FU issued
system.cpu.iq.FU_type_0::SimdShaSigma3              0      0.00%     36.61% # Type of FU issued
system.cpu.iq.FU_type_0::SimdPredAlu                0      0.00%     36.61% # Type of FU issued
system.cpu.iq.FU_type_0::MemRead                26027      0.24%     36.84% # Type of FU issued
system.cpu.iq.FU_type_0::MemWrite             6878677     63.16%    100.00% # Type of FU issued
system.cpu.iq.FU_type_0::FloatMemRead               0      0.00%    100.00% # Type of FU issued
system.cpu.iq.FU_type_0::FloatMemWrite              0      0.00%    100.00% # Type of FU issued
system.cpu.iq.FU_type_0::IprAccess                  0      0.00%    100.00% # Type of FU issued
system.cpu.iq.FU_type_0::InstPrefetch               0      0.00%    100.00% # Type of FU issued
system.cpu.iq.FU_type_0::total               10891634                       # Type of FU issued
system.cpu.iq.fp_alu_accesses                       0                       # Number of floating point alu accesses
system.cpu.iq.fp_inst_queue_reads                   0                       # Number of floating instruction queue reads
system.cpu.iq.fp_inst_queue_wakeup_accesses            0                       # Number of floating instruction queue wakeup accesses
system.cpu.iq.fp_inst_queue_writes                  0                       # Number of floating instruction queue writes
system.cpu.iq.fu_busy_cnt                      945671                       # FU busy when requested
system.cpu.iq.fu_busy_rate                   0.086825                       # FU busy rate (busy events/executed inst)
system.cpu.iq.fu_full::No_OpClass                   0      0.00%      0.00% # attempts to use FU when none available
system.cpu.iq.fu_full::IntAlu                   14846      1.57%      1.57% # attempts to use FU when none available
system.cpu.iq.fu_full::IntMult                      0      0.00%      1.57% # attempts to use FU when none available
system.cpu.iq.fu_full::IntDiv                       0      0.00%      1.57% # attempts to use FU when none available
system.cpu.iq.fu_full::FloatAdd                     0      0.00%      1.57% # attempts to use FU when none available
system.cpu.iq.fu_full::FloatCmp                     0      0.00%      1.57% # attempts to use FU when none available
system.cpu.iq.fu_full::FloatCvt                     0      0.00%      1.57% # attempts to use FU when none available
system.cpu.iq.fu_full::FloatMult                    0      0.00%      1.57% # attempts to use FU when none available
system.cpu.iq.fu_full::FloatMultAcc                 0      0.00%      1.57% # attempts to use FU when none available
system.cpu.iq.fu_full::FloatDiv                    12      0.00%      1.57% # attempts to use FU when none available
system.cpu.iq.fu_full::FloatMisc                    0      0.00%      1.57% # attempts to use FU when none available
system.cpu.iq.fu_full::FloatSqrt                    0      0.00%      1.57% # attempts to use FU when none available
system.cpu.iq.fu_full::SimdAdd                      0      0.00%      1.57% # attempts to use FU when none available
system.cpu.iq.fu_full::SimdAddAcc                   0      0.00%      1.57% # attempts to use FU when none available
system.cpu.iq.fu_full::SimdAlu                      1      0.00%      1.57% # attempts to use FU when none available
system.cpu.iq.fu_full::SimdCmp                      2      0.00%      1.57% # attempts to use FU when none available
system.cpu.iq.fu_full::SimdCvt                      0      0.00%      1.57% # attempts to use FU when none available
system.cpu.iq.fu_full::SimdMisc                     0      0.00%      1.57% # attempts to use FU when none available
system.cpu.iq.fu_full::SimdMult                     0      0.00%      1.57% # attempts to use FU when none available
system.cpu.iq.fu_full::SimdMultAcc                  0      0.00%      1.57% # attempts to use FU when none available
system.cpu.iq.fu_full::SimdShift                    0      0.00%      1.57% # attempts to use FU when none available
system.cpu.iq.fu_full::SimdShiftAcc                 0      0.00%      1.57% # attempts to use FU when none available
system.cpu.iq.fu_full::SimdDiv                      0      0.00%      1.57% # attempts to use FU when none available
system.cpu.iq.fu_full::SimdSqrt                     0      0.00%      1.57% # attempts to use FU when none available
system.cpu.iq.fu_full::SimdFloatAdd                 0      0.00%      1.57% # attempts to use FU when none available
system.cpu.iq.fu_full::SimdFloatAlu                 0      0.00%      1.57% # attempts to use FU when none available
system.cpu.iq.fu_full::SimdFloatCmp                 0      0.00%      1.57% # attempts to use FU when none available
system.cpu.iq.fu_full::SimdFloatCvt                 0      0.00%      1.57% # attempts to use FU when none available
system.cpu.iq.fu_full::SimdFloatDiv                 0      0.00%      1.57% # attempts to use FU when none available
system.cpu.iq.fu_full::SimdFloatMisc                0      0.00%      1.57% # attempts to use FU when none available
system.cpu.iq.fu_full::SimdFloatMult                0      0.00%      1.57% # attempts to use FU when none available
system.cpu.iq.fu_full::SimdFloatMultAcc             0      0.00%      1.57% # attempts to use FU when none available
system.cpu.iq.fu_full::SimdFloatSqrt                0      0.00%      1.57% # attempts to use FU when none available
system.cpu.iq.fu_full::SimdReduceAdd                0      0.00%      1.57% # attempts to use FU when none available
system.cpu.iq.fu_full::SimdReduceAlu                0      0.00%      1.57% # attempts to use FU when none available
system.cpu.iq.fu_full::SimdReduceCmp                0      0.00%      1.57% # attempts to use FU when none available
system.cpu.iq.fu_full::SimdFloatReduceAdd            0      0.00%      1.57% # attempts to use FU when none available
system.cpu.iq.fu_full::SimdFloatReduceCmp            0      0.00%      1.57% # attempts to use FU when none available
system.cpu.iq.fu_full::SimdAes                      0      0.00%      1.57% # attempts to use FU when none available
system.cpu.iq.fu_full::SimdAesMix                   0      0.00%      1.57% # attempts to use FU when none available
system.cpu.iq.fu_full::SimdSha1Hash                 0      0.00%      1.57% # attempts to use FU when none available
system.cpu.iq.fu_full::SimdSha1Hash2                0      0.00%      1.57% # attempts to use FU when none available
system.cpu.iq.fu_full::SimdSha256Hash               0      0.00%      1.57% # attempts to use FU when none available
system.cpu.iq.fu_full::SimdSha256Hash2              0      0.00%      1.57% # attempts to use FU when none available
system.cpu.iq.fu_full::SimdShaSigma2                0      0.00%      1.57% # attempts to use FU when none available
system.cpu.iq.fu_full::SimdShaSigma3                0      0.00%      1.57% # attempts to use FU when none available
system.cpu.iq.fu_full::SimdPredAlu                  0      0.00%      1.57% # attempts to use FU when none available
system.cpu.iq.fu_full::MemRead                    450      0.05%      1.62% # attempts to use FU when none available
system.cpu.iq.fu_full::MemWrite                930360     98.38%    100.00% # attempts to use FU when none available
system.cpu.iq.fu_full::FloatMemRead                 0      0.00%    100.00% # attempts to use FU when none available
system.cpu.iq.fu_full::FloatMemWrite                0      0.00%    100.00% # attempts to use FU when none available
system.cpu.iq.fu_full::IprAccess                    0      0.00%    100.00% # attempts to use FU when none available
system.cpu.iq.fu_full::InstPrefetch                 0      0.00%    100.00% # attempts to use FU when none available
system.cpu.iq.int_alu_accesses               11517803                       # Number of integer alu accesses
system.cpu.iq.int_inst_queue_reads           75755929                       # Number of integer instruction queue reads
system.cpu.iq.int_inst_queue_wakeup_accesses     10357589                       # Number of integer instruction queue wakeup accesses
system.cpu.iq.int_inst_queue_writes          11228218                       # Number of integer instruction queue writes
system.cpu.iq.iqInstsAdded                   10895562                       # Number of instructions added to the IQ (excludes non-spec)
system.cpu.iq.iqInstsIssued                  10891634                       # Number of instructions issued
system.cpu.iq.iqNonSpecInstsAdded                 198                       # Number of non-speculative instructions added to the IQ
system.cpu.iq.iqSquashedInstsExamined          673930                       # Number of squashed instructions iterated over during squash; mainly for profiling
system.cpu.iq.iqSquashedInstsIssued              1462                       # Number of squashed instructions issued
system.cpu.iq.iqSquashedNonSpecRemoved             36                       # Number of squashed non-spec instructions that were removed
system.cpu.iq.iqSquashedOperandsExamined       657384                       # Number of squashed operands that are examined and possibly removed from graph
system.cpu.iq.issued_per_cycle::samples      53664224                       # Number of insts issued each cycle
system.cpu.iq.issued_per_cycle::mean         0.202959                       # Number of insts issued each cycle
system.cpu.iq.issued_per_cycle::stdev        0.949193                       # Number of insts issued each cycle
system.cpu.iq.issued_per_cycle::underflows            0      0.00%      0.00% # Number of insts issued each cycle
system.cpu.iq.issued_per_cycle::0            50409655     93.94%     93.94% # Number of insts issued each cycle
system.cpu.iq.issued_per_cycle::1             1036581      1.93%     95.87% # Number of insts issued each cycle
system.cpu.iq.issued_per_cycle::2              406166      0.76%     96.62% # Number of insts issued each cycle
system.cpu.iq.issued_per_cycle::3              238962      0.45%     97.07% # Number of insts issued each cycle
system.cpu.iq.issued_per_cycle::4              350203      0.65%     97.72% # Number of insts issued each cycle
system.cpu.iq.issued_per_cycle::5              660034      1.23%     98.95% # Number of insts issued each cycle
system.cpu.iq.issued_per_cycle::6              389196      0.73%     99.68% # Number of insts issued each cycle
system.cpu.iq.issued_per_cycle::7               97739      0.18%     99.86% # Number of insts issued each cycle
system.cpu.iq.issued_per_cycle::8               75688      0.14%    100.00% # Number of insts issued each cycle
system.cpu.iq.issued_per_cycle::overflows            0      0.00%    100.00% # Number of insts issued each cycle
system.cpu.iq.issued_per_cycle::min_value            0                       # Number of insts issued each cycle
system.cpu.iq.issued_per_cycle::max_value            8                       # Number of insts issued each cycle
system.cpu.iq.issued_per_cycle::total        53664224                       # Number of insts issued each cycle
system.cpu.iq.rate                           0.202686                       # Inst issue rate
system.cpu.iq.vec_alu_accesses                 319483                       # Number of vector alu accesses
system.cpu.iq.vec_inst_queue_reads             638693                       # Number of vector instruction queue reads
system.cpu.iq.vec_inst_queue_wakeup_accesses       313536                       # Number of vector instruction queue wakeup accesses
system.cpu.iq.vec_inst_queue_writes            341520                       # Number of vector instruction queue writes
system.cpu.itb.accesses                             0                       # DTB accesses
system.cpu.itb.align_faults                         0                       # Number of TLB faults due to alignment restrictions
system.cpu.itb.domain_faults                        0                       # Number of TLB faults due to domain restrictions
system.cpu.itb.flush_entries                        0                       # Number of entries that have been flushed from TLB
system.cpu.itb.flush_tlb                            0                       # Number of times complete TLB was flushed
system.cpu.itb.flush_tlb_asid                       0                       # Number of times TLB was flushed by ASID
system.cpu.itb.flush_tlb_mva                        0                       # Number of times TLB was flushed by MVA
system.cpu.itb.flush_tlb_mva_asid                   0                       # Number of times TLB was flushed by MVA & ASID
system.cpu.itb.hits                                 0                       # DTB hits
system.cpu.itb.inst_accesses                        0                       # ITB inst accesses
system.cpu.itb.inst_hits                            0                       # ITB inst hits
system.cpu.itb.inst_misses                          0                       # ITB inst misses
system.cpu.itb.misses                               0                       # DTB misses
system.cpu.itb.perms_faults                         0                       # Number of TLB faults due to permissions restrictions
system.cpu.itb.prefetch_faults                      0                       # Number of TLB faults due to prefetch
system.cpu.itb.read_accesses                        0                       # DTB read accesses
system.cpu.itb.read_hits                            0                       # DTB read hits
system.cpu.itb.read_misses                          0                       # DTB read misses
system.cpu.itb.stage2_mmu.stage2_tlb.accesses            0                       # DTB accesses
system.cpu.itb.stage2_mmu.stage2_tlb.align_faults            0                       # Number of TLB faults due to alignment restrictions
system.cpu.itb.stage2_mmu.stage2_tlb.domain_faults            0                       # Number of TLB faults due to domain restrictions
system.cpu.itb.stage2_mmu.stage2_tlb.flush_entries            0                       # Number of entries that have been flushed from TLB
system.cpu.itb.stage2_mmu.stage2_tlb.flush_tlb            0                       # Number of times complete TLB was flushed
system.cpu.itb.stage2_mmu.stage2_tlb.flush_tlb_asid            0                       # Number of times TLB was flushed by ASID
system.cpu.itb.stage2_mmu.stage2_tlb.flush_tlb_mva            0                       # Number of times TLB was flushed by MVA
system.cpu.itb.stage2_mmu.stage2_tlb.flush_tlb_mva_asid            0                       # Number of times TLB was flushed by MVA & ASID
system.cpu.itb.stage2_mmu.stage2_tlb.hits            0                       # DTB hits
system.cpu.itb.stage2_mmu.stage2_tlb.inst_accesses            0                       # ITB inst accesses
system.cpu.itb.stage2_mmu.stage2_tlb.inst_hits            0                       # ITB inst hits
system.cpu.itb.stage2_mmu.stage2_tlb.inst_misses            0                       # ITB inst misses
system.cpu.itb.stage2_mmu.stage2_tlb.misses            0                       # DTB misses
system.cpu.itb.stage2_mmu.stage2_tlb.perms_faults            0                       # Number of TLB faults due to permissions restrictions
system.cpu.itb.stage2_mmu.stage2_tlb.prefetch_faults            0                       # Number of TLB faults due to prefetch
system.cpu.itb.stage2_mmu.stage2_tlb.read_accesses            0                       # DTB read accesses
system.cpu.itb.stage2_mmu.stage2_tlb.read_hits            0                       # DTB read hits
system.cpu.itb.stage2_mmu.stage2_tlb.read_misses            0                       # DTB read misses
system.cpu.itb.stage2_mmu.stage2_tlb.walker.walkRequestOrigin_Requested::Data            0                       # Table walker requests started/completed, data/inst
system.cpu.itb.stage2_mmu.stage2_tlb.walker.walkRequestOrigin_Requested::Inst            0                       # Table walker requests started/completed, data/inst
system.cpu.itb.stage2_mmu.stage2_tlb.walker.walkRequestOrigin_Requested::total            0                       # Table walker requests started/completed, data/inst
system.cpu.itb.stage2_mmu.stage2_tlb.walker.walkRequestOrigin_Completed::Data            0                       # Table walker requests started/completed, data/inst
system.cpu.itb.stage2_mmu.stage2_tlb.walker.walkRequestOrigin_Completed::Inst            0                       # Table walker requests started/completed, data/inst
system.cpu.itb.stage2_mmu.stage2_tlb.walker.walkRequestOrigin_Completed::total            0                       # Table walker requests started/completed, data/inst
system.cpu.itb.stage2_mmu.stage2_tlb.walker.walkRequestOrigin::total            0                       # Table walker requests started/completed, data/inst
system.cpu.itb.stage2_mmu.stage2_tlb.walker.walks            0                       # Table walker walks requested
system.cpu.itb.stage2_mmu.stage2_tlb.write_accesses            0                       # DTB write accesses
system.cpu.itb.stage2_mmu.stage2_tlb.write_hits            0                       # DTB write hits
system.cpu.itb.stage2_mmu.stage2_tlb.write_misses            0                       # DTB write misses
system.cpu.itb.walker.walkRequestOrigin_Requested::Data            0                       # Table walker requests started/completed, data/inst
system.cpu.itb.walker.walkRequestOrigin_Requested::Inst            0                       # Table walker requests started/completed, data/inst
system.cpu.itb.walker.walkRequestOrigin_Requested::total            0                       # Table walker requests started/completed, data/inst
system.cpu.itb.walker.walkRequestOrigin_Completed::Data            0                       # Table walker requests started/completed, data/inst
system.cpu.itb.walker.walkRequestOrigin_Completed::Inst            0                       # Table walker requests started/completed, data/inst
system.cpu.itb.walker.walkRequestOrigin_Completed::total            0                       # Table walker requests started/completed, data/inst
system.cpu.itb.walker.walkRequestOrigin::total            0                       # Table walker requests started/completed, data/inst
system.cpu.itb.walker.walks                         0                       # Table walker walks requested
system.cpu.itb.write_accesses                       0                       # DTB write accesses
system.cpu.itb.write_hits                           0                       # DTB write hits
system.cpu.itb.write_misses                         0                       # DTB write misses
system.cpu.memDep0.conflictingLoads                54                       # Number of conflicting loads.
system.cpu.memDep0.conflictingStores              397                       # Number of conflicting stores.
system.cpu.memDep0.insertedLoads                21115                       # Number of loads inserted to the mem dependence unit.
system.cpu.memDep0.insertedStores             6882497                       # Number of stores inserted to the mem dependence unit.
system.cpu.misc_regfile_reads                10920400                       # number of misc regfile reads
system.cpu.misc_regfile_writes                  60549                       # number of misc regfile writes
system.cpu.numCycles                         53736473                       # number of cpu cycles simulated
system.cpu.numWorkItemsCompleted                    0                       # number of work items this cpu completed
system.cpu.numWorkItemsStarted                      0                       # number of work items this cpu started
system.cpu.rename.BlockCycles                 9731649                       # Number of cycles rename is blocking
system.cpu.rename.CommittedMaps               5663091                       # Number of HB maps that are committed
system.cpu.rename.IQFullEvents                     50                       # Number of times rename has blocked due to IQ full
system.cpu.rename.IdleCycles                   661676                       # Number of cycles rename is idle
system.cpu.rename.LQFullEvents                      2                       # Number of times rename has blocked due to LQ full
system.cpu.rename.ROBFullEvents                     9                       # Number of times rename has blocked due to ROB full
system.cpu.rename.RenameLookups              28251466                       # Number of register rename lookups that rename has made
system.cpu.rename.RenamedInsts               10923632                       # Number of instructions processed by rename
system.cpu.rename.RenamedOperands             6064595                       # Number of destination operands rename has renamed
system.cpu.rename.RunCycles                   1329431                       # Number of cycles rename is running
system.cpu.rename.SQFullEvents               41844759                       # Number of times rename has blocked due to SQ full
system.cpu.rename.SquashCycles                  14667                       # Number of cycles rename is squashing
system.cpu.rename.UnblockCycles              41907949                       # Number of cycles rename is unblocking
system.cpu.rename.UndoneMaps                   401485                       # Number of HB maps that are undone due to squashing
system.cpu.rename.int_rename_lookups         24253454                       # Number of integer rename lookups
system.cpu.rename.serializeStallCycles          18852                       # count of cycles rename stalled for serializing inst
system.cpu.rename.serializingInsts                642                       # count of serializing insts renamed
system.cpu.rename.skidInsts                   2990729                       # count of insts added to the skid buffer
system.cpu.rename.tempSerializingInsts            203                       # count of temporary serializing insts renamed
system.cpu.rename.vec_rename_lookups           320492                       # Number of vector rename lookups
system.cpu.rob.rob_reads                     63825230                       # The number of ROB reads
system.cpu.rob.rob_writes                    21776750                       # The number of ROB writes
system.cpu.timesIdled                            1357                       # Number of times that the entire CPU went into an idle state and unscheduled itself
system.cpu.vec_regfile_reads                   317883                       # number of vector regfile reads
system.cpu.vec_regfile_writes                   64529                       # number of vector regfile writes
system.cpu.workload.numSyscalls                    61                       # Number of system calls
system.membus.snoop_filter.hit_multi_requests            0                       # Number of requests hitting in the snoop filter with multiple (>1) holders of the requested data.
system.membus.snoop_filter.hit_multi_snoops            0                       # Number of snoops hitting in the snoop filter with multiple (>1) holders of the requested data.
system.membus.snoop_filter.hit_single_requests       756534                       # Number of requests hitting in the snoop filter with a single holder of the requested data.
system.membus.snoop_filter.hit_single_snoops            0                       # Number of snoops hitting in the snoop filter with a single holder of the requested data.
system.membus.snoop_filter.tot_requests       1546095                       # Total number of requests made to the snoop filter.
system.membus.snoop_filter.tot_snoops               0                       # Total number of snoops made to the snoop filter.
system.tol2bus.snoop_filter.hit_multi_requests            8                       # Number of requests hitting in the snoop filter with multiple (>1) holders of the requested data.
system.tol2bus.snoop_filter.hit_multi_snoops            0                       # Number of snoops hitting in the snoop filter with multiple (>1) holders of the requested data.
system.tol2bus.snoop_filter.hit_single_requests       791669                       # Number of requests hitting in the snoop filter with a single holder of the requested data.
system.tol2bus.snoop_filter.hit_single_snoops          256                       # Number of snoops hitting in the snoop filter with a single holder of the requested data.
system.tol2bus.snoop_filter.tot_requests      1584622                       # Total number of requests made to the snoop filter.
system.tol2bus.snoop_filter.tot_snoops            256                       # Total number of snoops made to the snoop filter.
system.membus.trans_dist::ReadResp                996                       # Transaction distribution
system.membus.trans_dist::WritebackDirty       755812                       # Transaction distribution
system.membus.trans_dist::CleanEvict              722                       # Transaction distribution
system.membus.trans_dist::ReadExReq            788458                       # Transaction distribution
system.membus.trans_dist::ReadExResp           788455                       # Transaction distribution
system.membus.trans_dist::ReadSharedReq           996                       # Transaction distribution
system.membus.trans_dist::InvalidateReq           107                       # Transaction distribution
system.membus.pkt_count_system.l2.mem_side::system.mem_ctrls.port      2335546                       # Packet count per connected master and slave (bytes)
system.membus.pkt_count::total                2335546                       # Packet count per connected master and slave (bytes)
system.membus.pkt_size_system.l2.mem_side::system.mem_ctrls.port     98896832                       # Cumulative packet size per connected master and slave (bytes)
system.membus.pkt_size::total                98896832                       # Cumulative packet size per connected master and slave (bytes)
system.membus.snoops                                0                       # Total snoops (count)
system.membus.snoopTraffic                          0                       # Total snoop traffic (bytes)
system.membus.snoop_fanout::samples            789561                       # Request fanout histogram
system.membus.snoop_fanout::mean                    0                       # Request fanout histogram
system.membus.snoop_fanout::stdev                   0                       # Request fanout histogram
system.membus.snoop_fanout::underflows              0      0.00%      0.00% # Request fanout histogram
system.membus.snoop_fanout::0                  789561    100.00%    100.00% # Request fanout histogram
system.membus.snoop_fanout::1                       0      0.00%    100.00% # Request fanout histogram
system.membus.snoop_fanout::overflows               0      0.00%    100.00% # Request fanout histogram
system.membus.snoop_fanout::min_value               0                       # Request fanout histogram
system.membus.snoop_fanout::max_value               0                       # Request fanout histogram
system.membus.snoop_fanout::total              789561                       # Request fanout histogram
system.membus.reqLayer0.occupancy          4721565000                       # Layer occupancy (ticks)
system.membus.reqLayer0.utilization              17.6                       # Layer utilization (%)
system.membus.respLayer1.occupancy         4128385750                       # Layer occupancy (ticks)
system.membus.respLayer1.utilization             15.4                       # Layer utilization (%)
system.membus.power_state.pwrStateResidencyTicks::UNDEFINED  26868235500                       # Cumulative time (in ticks) in various power states
system.tol2bus.trans_dist::ReadResp              4378                       # Transaction distribution
system.tol2bus.trans_dist::WritebackDirty      1544741                       # Transaction distribution
system.tol2bus.trans_dist::WritebackClean         2633                       # Transaction distribution
system.tol2bus.trans_dist::CleanEvict            1085                       # Transaction distribution
system.tol2bus.trans_dist::ReadExReq           788468                       # Transaction distribution
system.tol2bus.trans_dist::ReadExResp          788464                       # Transaction distribution
system.tol2bus.trans_dist::ReadCleanReq          2889                       # Transaction distribution
system.tol2bus.trans_dist::ReadSharedReq         1489                       # Transaction distribution
system.tol2bus.trans_dist::InvalidateReq          107                       # Transaction distribution
system.tol2bus.trans_dist::InvalidateResp          107                       # Transaction distribution
system.tol2bus.pkt_count_system.cpu.icache.mem_side::system.l2.cpu_side         8411                       # Packet count per connected master and slave (bytes)
system.tol2bus.pkt_count_system.cpu.dcache.mem_side::system.l2.cpu_side      2369160                       # Packet count per connected master and slave (bytes)
system.tol2bus.pkt_count::total               2377571                       # Packet count per connected master and slave (bytes)
system.tol2bus.pkt_size_system.cpu.icache.mem_side::system.l2.cpu_side       353408                       # Cumulative packet size per connected master and slave (bytes)
system.tol2bus.pkt_size_system.cpu.dcache.mem_side::system.l2.cpu_side    101048448                       # Cumulative packet size per connected master and slave (bytes)
system.tol2bus.pkt_size::total              101401856                       # Cumulative packet size per connected master and slave (bytes)
system.tol2bus.snoops                          756790                       # Total snoops (count)
system.tol2bus.snoopTraffic                  48371968                       # Total snoop traffic (bytes)
system.tol2bus.snoop_fanout::samples          1549743                       # Request fanout histogram
system.tol2bus.snoop_fanout::mean            0.000170                       # Request fanout histogram
system.tol2bus.snoop_fanout::stdev           0.013051                       # Request fanout histogram
system.tol2bus.snoop_fanout::underflows             0      0.00%      0.00% # Request fanout histogram
system.tol2bus.snoop_fanout::0                1549479     99.98%     99.98% # Request fanout histogram
system.tol2bus.snoop_fanout::1                    264      0.02%    100.00% # Request fanout histogram
system.tol2bus.snoop_fanout::2                      0      0.00%    100.00% # Request fanout histogram
system.tol2bus.snoop_fanout::overflows              0      0.00%    100.00% # Request fanout histogram
system.tol2bus.snoop_fanout::min_value              0                       # Request fanout histogram
system.tol2bus.snoop_fanout::max_value              1                       # Request fanout histogram
system.tol2bus.snoop_fanout::total            1549743                       # Request fanout histogram
system.tol2bus.reqLayer0.occupancy         1584206943                       # Layer occupancy (ticks)
system.tol2bus.reqLayer0.utilization              5.9                       # Layer utilization (%)
system.tol2bus.respLayer1.occupancy        1184983499                       # Layer occupancy (ticks)
system.tol2bus.respLayer1.utilization             4.4                       # Layer utilization (%)
system.tol2bus.respLayer0.occupancy           4333500                       # Layer occupancy (ticks)
system.tol2bus.respLayer0.utilization             0.0                       # Layer utilization (%)
system.tol2bus.power_state.pwrStateResidencyTicks::UNDEFINED  26868235500                       # Cumulative time (in ticks) in various power states
system.voltage_domain.voltage                       1                       # Voltage in Volts
system.clk_domain.clock                          1000                       # Clock period in ticks
system.l2.demand_hits::.cpu.inst                 1099                       # number of demand (read+write) hits
system.l2.demand_hits::.cpu.data                 1374                       # number of demand (read+write) hits
system.l2.demand_hits::.cpu.icache.prefetcher          918                       # number of demand (read+write) hits
system.l2.demand_hits::total                     3391                       # number of demand (read+write) hits
system.l2.overall_hits::.cpu.inst                1099                       # number of overall hits
system.l2.overall_hits::.cpu.data                1374                       # number of overall hits
system.l2.overall_hits::.cpu.icache.prefetcher          918                       # number of overall hits
system.l2.overall_hits::total                    3391                       # number of overall hits
system.l2.demand_misses::.cpu.inst                872                       # number of demand (read+write) misses
system.l2.demand_misses::.cpu.data             788583                       # number of demand (read+write) misses
system.l2.demand_misses::total                 789455                       # number of demand (read+write) misses
system.l2.overall_misses::.cpu.inst               872                       # number of overall misses
system.l2.overall_misses::.cpu.data            788583                       # number of overall misses
system.l2.overall_misses::total                789455                       # number of overall misses
system.l2.demand_miss_latency::.cpu.inst     67909500                       # number of demand (read+write) miss cycles
system.l2.demand_miss_latency::.cpu.data  83729649500                       # number of demand (read+write) miss cycles
system.l2.demand_miss_latency::total      83797559000                       # number of demand (read+write) miss cycles
system.l2.overall_miss_latency::.cpu.inst     67909500                       # number of overall miss cycles
system.l2.overall_miss_latency::.cpu.data  83729649500                       # number of overall miss cycles
system.l2.overall_miss_latency::total     83797559000                       # number of overall miss cycles
system.l2.demand_accesses::.cpu.inst             1971                       # number of demand (read+write) accesses
system.l2.demand_accesses::.cpu.data           789957                       # number of demand (read+write) accesses
system.l2.demand_accesses::.cpu.icache.prefetcher          918                       # number of demand (read+write) accesses
system.l2.demand_accesses::total               792846                       # number of demand (read+write) accesses
system.l2.overall_accesses::.cpu.inst            1971                       # number of overall (read+write) accesses
system.l2.overall_accesses::.cpu.data          789957                       # number of overall (read+write) accesses
system.l2.overall_accesses::.cpu.icache.prefetcher          918                       # number of overall (read+write) accesses
system.l2.overall_accesses::total              792846                       # number of overall (read+write) accesses
system.l2.demand_miss_rate::.cpu.inst        0.442415                       # miss rate for demand accesses
system.l2.demand_miss_rate::.cpu.data        0.998261                       # miss rate for demand accesses
system.l2.demand_miss_rate::total            0.995723                       # miss rate for demand accesses
system.l2.overall_miss_rate::.cpu.inst       0.442415                       # miss rate for overall accesses
system.l2.overall_miss_rate::.cpu.data       0.998261                       # miss rate for overall accesses
system.l2.overall_miss_rate::total           0.995723                       # miss rate for overall accesses
system.l2.demand_avg_miss_latency::.cpu.inst 77877.866972                       # average overall miss latency
system.l2.demand_avg_miss_latency::.cpu.data 106177.345314                       # average overall miss latency
system.l2.demand_avg_miss_latency::total 106146.086857                       # average overall miss latency
system.l2.overall_avg_miss_latency::.cpu.inst 77877.866972                       # average overall miss latency
system.l2.overall_avg_miss_latency::.cpu.data 106177.345314                       # average overall miss latency
system.l2.overall_avg_miss_latency::total 106146.086857                       # average overall miss latency
system.l2.blocked_cycles::no_mshrs                  0                       # number of cycles access was blocked
system.l2.blocked_cycles::no_targets                0                       # number of cycles access was blocked
system.l2.blocked::no_mshrs                         0                       # number of cycles access was blocked
system.l2.blocked::no_targets                       0                       # number of cycles access was blocked
system.l2.avg_blocked_cycles::no_mshrs            nan                       # average number of cycles each access was blocked
system.l2.avg_blocked_cycles::no_targets          nan                       # average number of cycles each access was blocked
system.l2.writebacks::.writebacks              755812                       # number of writebacks
system.l2.writebacks::total                    755812                       # number of writebacks
system.l2.demand_mshr_misses::.cpu.inst           872                       # number of demand (read+write) MSHR misses
system.l2.demand_mshr_misses::.cpu.data        788583                       # number of demand (read+write) MSHR misses
system.l2.demand_mshr_misses::total            789455                       # number of demand (read+write) MSHR misses
system.l2.overall_mshr_misses::.cpu.inst          872                       # number of overall MSHR misses
system.l2.overall_mshr_misses::.cpu.data       788583                       # number of overall MSHR misses
system.l2.overall_mshr_misses::total           789455                       # number of overall MSHR misses
system.l2.demand_mshr_miss_latency::.cpu.inst     59189500                       # number of demand (read+write) MSHR miss cycles
system.l2.demand_mshr_miss_latency::.cpu.data  75843859500                       # number of demand (read+write) MSHR miss cycles
system.l2.demand_mshr_miss_latency::total  75903049000                       # number of demand (read+write) MSHR miss cycles
system.l2.overall_mshr_miss_latency::.cpu.inst     59189500                       # number of overall MSHR miss cycles
system.l2.overall_mshr_miss_latency::.cpu.data  75843859500                       # number of overall MSHR miss cycles
system.l2.overall_mshr_miss_latency::total  75903049000                       # number of overall MSHR miss cycles
system.l2.demand_mshr_miss_rate::.cpu.inst     0.442415                       # mshr miss rate for demand accesses
system.l2.demand_mshr_miss_rate::.cpu.data     0.998261                       # mshr miss rate for demand accesses
system.l2.demand_mshr_miss_rate::total       0.995723                       # mshr miss rate for demand accesses
system.l2.overall_mshr_miss_rate::.cpu.inst     0.442415                       # mshr miss rate for overall accesses
system.l2.overall_mshr_miss_rate::.cpu.data     0.998261                       # mshr miss rate for overall accesses
system.l2.overall_mshr_miss_rate::total      0.995723                       # mshr miss rate for overall accesses
system.l2.demand_avg_mshr_miss_latency::.cpu.inst 67877.866972                       # average overall mshr miss latency
system.l2.demand_avg_mshr_miss_latency::.cpu.data 96177.396038                       # average overall mshr miss latency
system.l2.demand_avg_mshr_miss_latency::total 96146.137525                       # average overall mshr miss latency
system.l2.overall_avg_mshr_miss_latency::.cpu.inst 67877.866972                       # average overall mshr miss latency
system.l2.overall_avg_mshr_miss_latency::.cpu.data 96177.396038                       # average overall mshr miss latency
system.l2.overall_avg_mshr_miss_latency::total 96146.137525                       # average overall mshr miss latency
system.l2.replacements                         756790                       # number of replacements
system.l2.WritebackDirty_hits::.writebacks       788929                       # number of WritebackDirty hits
system.l2.WritebackDirty_hits::total           788929                       # number of WritebackDirty hits
system.l2.WritebackDirty_accesses::.writebacks       788929                       # number of WritebackDirty accesses(hits+misses)
system.l2.WritebackDirty_accesses::total       788929                       # number of WritebackDirty accesses(hits+misses)
system.l2.WritebackClean_hits::.writebacks         2626                       # number of WritebackClean hits
system.l2.WritebackClean_hits::total             2626                       # number of WritebackClean hits
system.l2.WritebackClean_accesses::.writebacks         2626                       # number of WritebackClean accesses(hits+misses)
system.l2.WritebackClean_accesses::total         2626                       # number of WritebackClean accesses(hits+misses)
system.l2.ReadExReq_hits::.cpu.data                 9                       # number of ReadExReq hits
system.l2.ReadExReq_hits::total                     9                       # number of ReadExReq hits
system.l2.ReadExReq_misses::.cpu.data          788459                       # number of ReadExReq misses
system.l2.ReadExReq_misses::total              788459                       # number of ReadExReq misses
system.l2.ReadExReq_miss_latency::.cpu.data  83718925500                       # number of ReadExReq miss cycles
system.l2.ReadExReq_miss_latency::total   83718925500                       # number of ReadExReq miss cycles
system.l2.ReadExReq_accesses::.cpu.data        788468                       # number of ReadExReq accesses(hits+misses)
system.l2.ReadExReq_accesses::total            788468                       # number of ReadExReq accesses(hits+misses)
system.l2.ReadExReq_miss_rate::.cpu.data     0.999989                       # miss rate for ReadExReq accesses
system.l2.ReadExReq_miss_rate::total         0.999989                       # miss rate for ReadExReq accesses
system.l2.ReadExReq_avg_miss_latency::.cpu.data 106180.442483                       # average ReadExReq miss latency
system.l2.ReadExReq_avg_miss_latency::total 106180.442483                       # average ReadExReq miss latency
system.l2.ReadExReq_mshr_misses::.cpu.data       788459                       # number of ReadExReq MSHR misses
system.l2.ReadExReq_mshr_misses::total         788459                       # number of ReadExReq MSHR misses
system.l2.ReadExReq_mshr_miss_latency::.cpu.data  75834375500                       # number of ReadExReq MSHR miss cycles
system.l2.ReadExReq_mshr_miss_latency::total  75834375500                       # number of ReadExReq MSHR miss cycles
system.l2.ReadExReq_mshr_miss_rate::.cpu.data     0.999989                       # mshr miss rate for ReadExReq accesses
system.l2.ReadExReq_mshr_miss_rate::total     0.999989                       # mshr miss rate for ReadExReq accesses
system.l2.ReadExReq_avg_mshr_miss_latency::.cpu.data 96180.493215                       # average ReadExReq mshr miss latency
system.l2.ReadExReq_avg_mshr_miss_latency::total 96180.493215                       # average ReadExReq mshr miss latency
system.l2.ReadCleanReq_hits::.cpu.inst           1099                       # number of ReadCleanReq hits
system.l2.ReadCleanReq_hits::.cpu.icache.prefetcher          918                       # number of ReadCleanReq hits
system.l2.ReadCleanReq_hits::total               2017                       # number of ReadCleanReq hits
system.l2.ReadCleanReq_misses::.cpu.inst          872                       # number of ReadCleanReq misses
system.l2.ReadCleanReq_misses::total              872                       # number of ReadCleanReq misses
[...]
system.cpu.dcache.demand_miss_latency::total 117351612888                       # number of demand (read+write) miss cycles
system.cpu.dcache.overall_miss_latency::.cpu.data 117351612888                       # number of overall miss cycles
system.cpu.dcache.overall_miss_latency::total 117351612888                       # number of overall miss cycles
system.cpu.dcache.demand_accesses::.cpu.data      6486878                       # number of demand (read+write) accesses
system.cpu.dcache.demand_accesses::total      6486878                       # number of demand (read+write) accesses
system.cpu.dcache.overall_accesses::.cpu.data      6486947                       # number of overall (read+write) accesses
system.cpu.dcache.overall_accesses::total      6486947                       # number of overall (read+write) accesses
system.cpu.dcache.demand_miss_rate::.cpu.data     0.260753                       # miss rate for demand accesses
system.cpu.dcache.demand_miss_rate::total     0.260753                       # miss rate for demand accesses
system.cpu.dcache.overall_miss_rate::.cpu.data     0.260751                       # miss rate for overall accesses
system.cpu.dcache.overall_miss_rate::total     0.260751                       # miss rate for overall accesses
system.cpu.dcache.demand_avg_miss_latency::.cpu.data 69378.272152                       # average overall miss latency
system.cpu.dcache.demand_avg_miss_latency::total 69378.272152                       # average overall miss latency
system.cpu.dcache.overall_avg_miss_latency::.cpu.data 69378.067070                       # average overall miss latency
system.cpu.dcache.overall_avg_miss_latency::total 69378.067070                       # average overall miss latency
system.cpu.dcache.blocked_cycles::no_mshrs     37328188                       # number of cycles access was blocked
system.cpu.dcache.blocked_cycles::no_targets            0                       # number of cycles access was blocked
system.cpu.dcache.blocked::no_mshrs            502190                       # number of cycles access was blocked
system.cpu.dcache.blocked::no_targets               0                       # number of cycles access was blocked
system.cpu.dcache.avg_blocked_cycles::no_mshrs    74.330807                       # average number of cycles each access was blocked
system.cpu.dcache.avg_blocked_cycles::no_targets          nan                       # average number of cycles each access was blocked
system.cpu.dcache.writebacks::.writebacks       788929                       # number of writebacks
system.cpu.dcache.writebacks::total            788929                       # number of writebacks
system.cpu.dcache.demand_mshr_hits::.cpu.data       901417                       # number of demand (read+write) MSHR hits
system.cpu.dcache.demand_mshr_hits::total       901417                       # number of demand (read+write) MSHR hits
system.cpu.dcache.overall_mshr_hits::.cpu.data       901417                       # number of overall MSHR hits
system.cpu.dcache.overall_mshr_hits::total       901417                       # number of overall MSHR hits
system.cpu.dcache.demand_mshr_misses::.cpu.data       790058                       # number of demand (read+write) MSHR misses
system.cpu.dcache.demand_mshr_misses::total       790058                       # number of demand (read+write) MSHR misses
system.cpu.dcache.overall_mshr_misses::.cpu.data       790063                       # number of overall MSHR misses
system.cpu.dcache.overall_mshr_misses::total       790063                       # number of overall MSHR misses
system.cpu.dcache.demand_mshr_miss_latency::.cpu.data  85760218828                       # number of demand (read+write) MSHR miss cycles
system.cpu.dcache.demand_mshr_miss_latency::total  85760218828                       # number of demand (read+write) MSHR miss cycles
system.cpu.dcache.overall_mshr_miss_latency::.cpu.data  85760650828                       # number of overall MSHR miss cycles
system.cpu.dcache.overall_mshr_miss_latency::total  85760650828                       # number of overall MSHR miss cycles
system.cpu.dcache.demand_mshr_miss_rate::.cpu.data     0.121793                       # mshr miss rate for demand accesses
system.cpu.dcache.demand_mshr_miss_rate::total     0.121793                       # mshr miss rate for demand accesses
system.cpu.dcache.overall_mshr_miss_rate::.cpu.data     0.121793                       # mshr miss rate for overall accesses
system.cpu.dcache.overall_mshr_miss_rate::total     0.121793                       # mshr miss rate for overall accesses
system.cpu.dcache.demand_avg_mshr_miss_latency::.cpu.data 108549.269583                       # average overall mshr miss latency
system.cpu.dcache.demand_avg_mshr_miss_latency::total 108549.269583                       # average overall mshr miss latency
system.cpu.dcache.overall_avg_mshr_miss_latency::.cpu.data 108549.129409                       # average overall mshr miss latency
system.cpu.dcache.overall_avg_mshr_miss_latency::total 108549.129409                       # average overall mshr miss latency
system.cpu.dcache.replacements                 789036                       # number of replacements
system.cpu.dcache.ReadReq_hits::.cpu.data        16937                       # number of ReadReq hits
system.cpu.dcache.ReadReq_hits::total           16937                       # number of ReadReq hits
system.cpu.dcache.ReadReq_misses::.cpu.data         2117                       # number of ReadReq misses
system.cpu.dcache.ReadReq_misses::total          2117                       # number of ReadReq misses
system.cpu.dcache.ReadReq_miss_latency::.cpu.data     46658000                       # number of ReadReq miss cycles
system.cpu.dcache.ReadReq_miss_latency::total     46658000                       # number of ReadReq miss cycles
system.cpu.dcache.ReadReq_accesses::.cpu.data        19054                       # number of ReadReq accesses(hits+misses)
system.cpu.dcache.ReadReq_accesses::total        19054                       # number of ReadReq accesses(hits+misses)
system.cpu.dcache.ReadReq_miss_rate::.cpu.data     0.111105                       # miss rate for ReadReq accesses
system.cpu.dcache.ReadReq_miss_rate::total     0.111105                       # miss rate for ReadReq accesses
system.cpu.dcache.ReadReq_avg_miss_latency::.cpu.data 22039.678791                       # average ReadReq miss latency
system.cpu.dcache.ReadReq_avg_miss_latency::total 22039.678791                       # average ReadReq miss latency
system.cpu.dcache.ReadReq_mshr_hits::.cpu.data          634                       # number of ReadReq MSHR hits
system.cpu.dcache.ReadReq_mshr_hits::total          634                       # number of ReadReq MSHR hits
system.cpu.dcache.ReadReq_mshr_misses::.cpu.data         1483                       # number of ReadReq MSHR misses
system.cpu.dcache.ReadReq_mshr_misses::total         1483                       # number of ReadReq MSHR misses
system.cpu.dcache.ReadReq_mshr_miss_latency::.cpu.data     27899000                       # number of ReadReq MSHR miss cycles
system.cpu.dcache.ReadReq_mshr_miss_latency::total     27899000                       # number of ReadReq MSHR miss cycles
system.cpu.dcache.ReadReq_mshr_miss_rate::.cpu.data     0.077831                       # mshr miss rate for ReadReq accesses
system.cpu.dcache.ReadReq_mshr_miss_rate::total     0.077831                       # mshr miss rate for ReadReq accesses
system.cpu.dcache.ReadReq_avg_mshr_miss_latency::.cpu.data 18812.542144                       # average ReadReq mshr miss latency
system.cpu.dcache.ReadReq_avg_mshr_miss_latency::total 18812.542144                       # average ReadReq mshr miss latency
system.cpu.dcache.WriteReq_hits::.cpu.data      4778446                       # number of WriteReq hits
system.cpu.dcache.WriteReq_hits::total        4778446                       # number of WriteReq hits
system.cpu.dcache.WriteReq_misses::.cpu.data      1689257                       # number of WriteReq misses
system.cpu.dcache.WriteReq_misses::total      1689257                       # number of WriteReq misses
system.cpu.dcache.WriteReq_miss_latency::.cpu.data 117301749938                       # number of WriteReq miss cycles
system.cpu.dcache.WriteReq_miss_latency::total 117301749938                       # number of WriteReq miss cycles
system.cpu.dcache.WriteReq_accesses::.cpu.data      6467703                       # number of WriteReq accesses(hits+misses)
system.cpu.dcache.WriteReq_accesses::total      6467703                       # number of WriteReq accesses(hits+misses)
system.cpu.dcache.WriteReq_miss_rate::.cpu.data     0.261183                       # miss rate for WriteReq accesses
system.cpu.dcache.WriteReq_miss_rate::total     0.261183                       # miss rate for WriteReq accesses
system.cpu.dcache.WriteReq_avg_miss_latency::.cpu.data 69439.848370                       # average WriteReq miss latency
system.cpu.dcache.WriteReq_avg_miss_latency::total 69439.848370                       # average WriteReq miss latency
system.cpu.dcache.WriteReq_mshr_hits::.cpu.data       900783                       # number of WriteReq MSHR hits
system.cpu.dcache.WriteReq_mshr_hits::total       900783                       # number of WriteReq MSHR hits
system.cpu.dcache.WriteReq_mshr_misses::.cpu.data       788474                       # number of WriteReq MSHR misses
system.cpu.dcache.WriteReq_mshr_misses::total       788474                       # number of WriteReq MSHR misses
system.cpu.dcache.WriteReq_mshr_miss_latency::.cpu.data  85729215878                       # number of WriteReq MSHR miss cycles
system.cpu.dcache.WriteReq_mshr_miss_latency::total  85729215878                       # number of WriteReq MSHR miss cycles
system.cpu.dcache.WriteReq_mshr_miss_rate::.cpu.data     0.121909                       # mshr miss rate for WriteReq accesses
system.cpu.dcache.WriteReq_mshr_miss_rate::total     0.121909                       # mshr miss rate for WriteReq accesses
system.cpu.dcache.WriteReq_avg_mshr_miss_latency::.cpu.data 108728.018778                       # average WriteReq mshr miss latency
system.cpu.dcache.WriteReq_avg_mshr_miss_latency::total 108728.018778                       # average WriteReq mshr miss latency
system.cpu.dcache.SoftPFReq_hits::.cpu.data           64                       # number of SoftPFReq hits
system.cpu.dcache.SoftPFReq_hits::total            64                       # number of SoftPFReq hits
system.cpu.dcache.SoftPFReq_misses::.cpu.data            5                       # number of SoftPFReq misses
system.cpu.dcache.SoftPFReq_misses::total            5                       # number of SoftPFReq misses
system.cpu.dcache.SoftPFReq_accesses::.cpu.data           69                       # number of SoftPFReq accesses(hits+misses)
system.cpu.dcache.SoftPFReq_accesses::total           69                       # number of SoftPFReq accesses(hits+misses)
system.cpu.dcache.SoftPFReq_miss_rate::.cpu.data     0.072464                       # miss rate for SoftPFReq accesses
system.cpu.dcache.SoftPFReq_miss_rate::total     0.072464                       # miss rate for SoftPFReq accesses
system.cpu.dcache.SoftPFReq_mshr_misses::.cpu.data            5                       # number of SoftPFReq MSHR misses
system.cpu.dcache.SoftPFReq_mshr_misses::total            5                       # number of SoftPFReq MSHR misses
system.cpu.dcache.SoftPFReq_mshr_miss_latency::.cpu.data       432000                       # number of SoftPFReq MSHR miss cycles
system.cpu.dcache.SoftPFReq_mshr_miss_latency::total       432000                       # number of SoftPFReq MSHR miss cycles
system.cpu.dcache.SoftPFReq_mshr_miss_rate::.cpu.data     0.072464                       # mshr miss rate for SoftPFReq accesses
system.cpu.dcache.SoftPFReq_mshr_miss_rate::total     0.072464                       # mshr miss rate for SoftPFReq accesses
system.cpu.dcache.SoftPFReq_avg_mshr_miss_latency::.cpu.data        86400                       # average SoftPFReq mshr miss latency
system.cpu.dcache.SoftPFReq_avg_mshr_miss_latency::total        86400                       # average SoftPFReq mshr miss latency
system.cpu.dcache.WriteLineReq_hits::.cpu.data           20                       # number of WriteLineReq hits
system.cpu.dcache.WriteLineReq_hits::total           20                       # number of WriteLineReq hits
system.cpu.dcache.WriteLineReq_misses::.cpu.data          101                       # number of WriteLineReq misses
system.cpu.dcache.WriteLineReq_misses::total          101                       # number of WriteLineReq misses
system.cpu.dcache.WriteLineReq_miss_latency::.cpu.data      3204950                       # number of WriteLineReq miss cycles
system.cpu.dcache.WriteLineReq_miss_latency::total      3204950                       # number of WriteLineReq miss cycles
system.cpu.dcache.WriteLineReq_accesses::.cpu.data          121                       # number of WriteLineReq accesses(hits+misses)
system.cpu.dcache.WriteLineReq_accesses::total          121                       # number of WriteLineReq accesses(hits+misses)
system.cpu.dcache.WriteLineReq_miss_rate::.cpu.data     0.834711                       # miss rate for WriteLineReq accesses
system.cpu.dcache.WriteLineReq_miss_rate::total     0.834711                       # miss rate for WriteLineReq accesses
system.cpu.dcache.WriteLineReq_avg_miss_latency::.cpu.data 31732.178218                       # average WriteLineReq miss latency
system.cpu.dcache.WriteLineReq_avg_miss_latency::total 31732.178218                       # average WriteLineReq miss latency
system.cpu.dcache.WriteLineReq_mshr_misses::.cpu.data          101                       # number of WriteLineReq MSHR misses
system.cpu.dcache.WriteLineReq_mshr_misses::total          101                       # number of WriteLineReq MSHR misses
system.cpu.dcache.WriteLineReq_mshr_miss_latency::.cpu.data      3103950                       # number of WriteLineReq MSHR miss cycles
system.cpu.dcache.WriteLineReq_mshr_miss_latency::total      3103950                       # number of WriteLineReq MSHR miss cycles
system.cpu.dcache.WriteLineReq_mshr_miss_rate::.cpu.data     0.834711                       # mshr miss rate for WriteLineReq accesses
system.cpu.dcache.WriteLineReq_mshr_miss_rate::total     0.834711                       # mshr miss rate for WriteLineReq accesses
system.cpu.dcache.WriteLineReq_avg_mshr_miss_latency::.cpu.data 30732.178218                       # average WriteLineReq mshr miss latency
system.cpu.dcache.WriteLineReq_avg_mshr_miss_latency::total 30732.178218                       # average WriteLineReq mshr miss latency
system.cpu.dcache.LoadLockedReq_hits::.cpu.data          130                       # number of LoadLockedReq hits
system.cpu.dcache.LoadLockedReq_hits::total          130                       # number of LoadLockedReq hits
system.cpu.dcache.LoadLockedReq_misses::.cpu.data            1                       # number of LoadLockedReq misses
system.cpu.dcache.LoadLockedReq_misses::total            1                       # number of LoadLockedReq misses
system.cpu.dcache.LoadLockedReq_miss_latency::.cpu.data       111500                       # number of LoadLockedReq miss cycles
system.cpu.dcache.LoadLockedReq_miss_latency::total       111500                       # number of LoadLockedReq miss cycles
system.cpu.dcache.LoadLockedReq_accesses::.cpu.data          131                       # number of LoadLockedReq accesses(hits+misses)
system.cpu.dcache.LoadLockedReq_accesses::total          131                       # number of LoadLockedReq accesses(hits+misses)
system.cpu.dcache.LoadLockedReq_miss_rate::.cpu.data     0.007634                       # miss rate for LoadLockedReq accesses
system.cpu.dcache.LoadLockedReq_miss_rate::total     0.007634                       # miss rate for LoadLockedReq accesses
system.cpu.dcache.LoadLockedReq_avg_miss_latency::.cpu.data       111500                       # average LoadLockedReq miss latency
system.cpu.dcache.LoadLockedReq_avg_miss_latency::total       111500                       # average LoadLockedReq miss latency
system.cpu.dcache.LoadLockedReq_mshr_misses::.cpu.data            1                       # number of LoadLockedReq MSHR misses
system.cpu.dcache.LoadLockedReq_mshr_misses::total            1                       # number of LoadLockedReq MSHR misses
system.cpu.dcache.LoadLockedReq_mshr_miss_latency::.cpu.data       110500                       # number of LoadLockedReq MSHR miss cycles
system.cpu.dcache.LoadLockedReq_mshr_miss_latency::total       110500                       # number of LoadLockedReq MSHR miss cycles
system.cpu.dcache.LoadLockedReq_mshr_miss_rate::.cpu.data     0.007634                       # mshr miss rate for LoadLockedReq accesses
system.cpu.dcache.LoadLockedReq_mshr_miss_rate::total     0.007634                       # mshr miss rate for LoadLockedReq accesses
system.cpu.dcache.LoadLockedReq_avg_mshr_miss_latency::.cpu.data       110500                       # average LoadLockedReq mshr miss latency
system.cpu.dcache.LoadLockedReq_avg_mshr_miss_latency::total       110500                       # average LoadLockedReq mshr miss latency
system.cpu.dcache.StoreCondReq_hits::.cpu.data          100                       # number of StoreCondReq hits
system.cpu.dcache.StoreCondReq_hits::total          100                       # number of StoreCondReq hits
system.cpu.dcache.StoreCondReq_accesses::.cpu.data          100                       # number of StoreCondReq accesses(hits+misses)
system.cpu.dcache.StoreCondReq_accesses::total          100                       # number of StoreCondReq accesses(hits+misses)
system.cpu.dcache.power_state.pwrStateResidencyTicks::UNDEFINED  26868235500                       # Cumulative time (in ticks) in various power states
system.cpu.dcache.tags.tagsinuse          1021.338884                       # Cycle average of tags in use
system.cpu.dcache.tags.total_refs             5585757                       # Total number of references to valid blocks.
system.cpu.dcache.tags.sampled_refs            790060                       # Sample count of references to valid blocks.
system.cpu.dcache.tags.avg_refs              7.070042                       # Average number of references to valid blocks.
system.cpu.dcache.tags.warmup_cycle            176500                       # Cycle when the warmup percentage was hit.
system.cpu.dcache.tags.occ_blocks::.cpu.data  1021.338884                       # Average occupied blocks per requestor
system.cpu.dcache.tags.occ_percent::.cpu.data     0.997401                       # Average percentage of cache occupancy
system.cpu.dcache.tags.occ_percent::total     0.997401                       # Average percentage of cache occupancy
system.cpu.dcache.tags.occ_task_id_blocks::1024         1024                       # Occupied blocks per task id
system.cpu.dcache.tags.age_task_id_blocks_1024::0          298                       # Occupied blocks per task id
system.cpu.dcache.tags.age_task_id_blocks_1024::1          726                       # Occupied blocks per task id
system.cpu.dcache.tags.occ_task_id_percent::1024            1                       # Percentage of cache occupancy per task id
system.cpu.dcache.tags.tag_accesses          13764416                       # Number of tag accesses
system.cpu.dcache.tags.data_accesses         13764416                       # Number of data accesses
system.cpu.dcache.tags.power_state.pwrStateResidencyTicks::UNDEFINED  26868235500                       # Cumulative time (in ticks) in various power states
system.cpu.power_state.pwrStateResidencyTicks::ON  26868235500                       # Cumulative time (in ticks) in various power states

---------- End Simulation Statistics   ----------
