
---------- Begin Simulation Statistics ----------
final_tick                                  150611500                       # Number of ticks from beginning of simulation (restored from checkpoints and never reset)
host_inst_rate                                 184993                       # Simulator instruction rate (inst/s)
host_mem_usage                                 861952                       # Number of bytes of host memory used
host_op_rate                                   188638                       # Simulator op (including micro ops) rate (op/s)
host_seconds                                     5.41                       # Real time elapsed on the host
host_tick_rate                               27861014                       # Simulator tick rate (ticks/s)
sim_freq                                 1000000000000                       # Frequency of simulated ticks
sim_insts                                     1000001                       # Number of instructions simulated
sim_ops                                       1019737                       # Number of ops (including micro ops) simulated
sim_seconds                                  0.000151                       # Number of seconds simulated
sim_ticks                                   150611500                       # Number of ticks simulated
system.cpu.branchPred.BTBCorrect                    0                       # Number of correct BTB predictions (this stat may not work properly.
system.cpu.branchPred.BTBHitPct             99.295466                       # BTB Hit Percentage
system.cpu.branchPred.BTBHits                  117683                       # Number of BTB hits
system.cpu.branchPred.BTBLookups               118518                       # Number of BTB lookups
system.cpu.branchPred.RASInCorrect                  0                       # Number of incorrect RAS predictions.
system.cpu.branchPred.condIncorrect              1030                       # Number of conditional branches incorrect
system.cpu.branchPred.condPredicted            143375                       # Number of conditional branches predicted
system.cpu.branchPred.indirectHits                 16                       # Number of indirect target hits.
system.cpu.branchPred.indirectLookups             231                       # Number of indirect predictor lookups.
system.cpu.branchPred.indirectMisses              215                       # Number of indirect misses.
system.cpu.branchPred.lookups                  158083                       # Number of BP lookups
system.cpu.branchPred.usedRAS                     742                       # Number of times the RAS was used to get a target.
system.cpu.branchPredindirectMispredicted           57                       # Number of mispredicted indirect branches.
system.cpu.cc_regfile_reads                    369828                       # number of cc regfile reads
system.cpu.cc_regfile_writes                   385795                       # number of cc regfile writes
system.cpu.commit.amos                              0                       # Number of atomic instructions committed
system.cpu.commit.branchMispredicts               780                       # The number of times a branch was mispredicted
system.cpu.commit.branches                     152825                       # Number of branches committed
system.cpu.commit.bw_lim_events                 30275                       # number cycles where commit BW limit reached
system.cpu.commit.commitNonSpecStalls              56                       # The number of times commit has been forced to stall to communicate backwards
system.cpu.commit.commitSquashedInsts           16375                       # The number of squashed insts skipped by commit
system.cpu.commit.committedInsts              1000087                       # Number of instructions committed
system.cpu.commit.committedOps                1019823                       # Number of ops (including micro ops) committed
system.cpu.commit.committed_per_cycle::samples       256059                       # Number of insts commited each cycle
system.cpu.commit.committed_per_cycle::mean     3.982766                       # Number of insts commited each cycle
system.cpu.commit.committed_per_cycle::stdev     3.319734                       # Number of insts commited each cycle
system.cpu.commit.committed_per_cycle::underflows            0      0.00%      0.00% # Number of insts commited each cycle
system.cpu.commit.committed_per_cycle::0        73384     28.66%     28.66% # Number of insts commited each cycle
system.cpu.commit.committed_per_cycle::1        28258     11.04%     39.69% # Number of insts commited each cycle
system.cpu.commit.committed_per_cycle::2        13691      5.35%     45.04% # Number of insts commited each cycle
system.cpu.commit.committed_per_cycle::3         7606      2.97%     48.01% # Number of insts commited each cycle
system.cpu.commit.committed_per_cycle::4         3437      1.34%     49.35% # Number of insts commited each cycle
system.cpu.commit.committed_per_cycle::5         2142      0.84%     50.19% # Number of insts commited each cycle
system.cpu.commit.committed_per_cycle::6         6155      2.40%     52.59% # Number of insts commited each cycle
system.cpu.commit.committed_per_cycle::7        91111     35.58%     88.18% # Number of insts commited each cycle
system.cpu.commit.committed_per_cycle::8        30275     11.82%    100.00% # Number of insts commited each cycle
system.cpu.commit.committed_per_cycle::overflows            0      0.00%    100.00% # Number of insts commited each cycle
system.cpu.commit.committed_per_cycle::min_value            0                       # Number of insts commited each cycle
system.cpu.commit.committed_per_cycle::max_value            8                       # Number of insts commited each cycle
system.cpu.commit.committed_per_cycle::total       256059                       # Number of insts commited each cycle
system.cpu.commit.fp_insts                          0                       # Number of committed floating point instructions.
system.cpu.commit.function_calls                  374                       # Number of function calls committed.
system.cpu.commit.int_insts                    810701                       # Number of committed integer instructions.
system.cpu.commit.loads                        256051                       # Number of loads committed
system.cpu.commit.membars                          48                       # Number of memory barriers committed
system.cpu.commit.op_class_0::No_OpClass           10      0.00%      0.00% # Class of committed instruction
system.cpu.commit.op_class_0::IntAlu           571430     56.03%     56.03% # Class of committed instruction
system.cpu.commit.op_class_0::IntMult            6238      0.61%     56.64% # Class of committed instruction
system.cpu.commit.op_class_0::IntDiv                7      0.00%     56.65% # Class of committed instruction
system.cpu.commit.op_class_0::FloatAdd           4094      0.40%     57.05% # Class of committed instruction
system.cpu.commit.op_class_0::FloatCmp          15846      1.55%     58.60% # Class of committed instruction
system.cpu.commit.op_class_0::FloatCvt           6163      0.60%     59.21% # Class of committed instruction
system.cpu.commit.op_class_0::FloatMult         21987      2.16%     61.36% # Class of committed instruction
system.cpu.commit.op_class_0::FloatMultAcc        21987      2.16%     63.52% # Class of committed instruction
system.cpu.commit.op_class_0::FloatDiv             22      0.00%     63.52% # Class of committed instruction
system.cpu.commit.op_class_0::FloatMisc          2070      0.20%     63.72% # Class of committed instruction
system.cpu.commit.op_class_0::FloatSqrt             0      0.00%     63.72% # Class of committed instruction
system.cpu.commit.op_class_0::SimdAdd              32      0.00%     63.73% # Class of committed instruction
system.cpu.commit.op_class_0::SimdAddAcc            0      0.00%     63.73% # Class of committed instruction
system.cpu.commit.op_class_0::SimdAlu              37      0.00%     63.73% # Class of committed instruction
system.cpu.commit.op_class_0::SimdCmp              40      0.00%     63.73% # Class of committed instruction
system.cpu.commit.op_class_0::SimdCvt               0      0.00%     63.73% # Class of committed instruction
system.cpu.commit.op_class_0::SimdMisc           2082      0.20%     63.94% # Class of committed instruction
system.cpu.commit.op_class_0::SimdMult              0      0.00%     63.94% # Class of committed instruction
system.cpu.commit.op_class_0::SimdMultAcc            0      0.00%     63.94% # Class of committed instruction
system.cpu.commit.op_class_0::SimdShift             0      0.00%     63.94% # Class of committed instruction
system.cpu.commit.op_class_0::SimdShiftAcc            0      0.00%     63.94% # Class of committed instruction
system.cpu.commit.op_class_0::SimdDiv               0      0.00%     63.94% # Class of committed instruction
system.cpu.commit.op_class_0::SimdSqrt              0      0.00%     63.94% # Class of committed instruction
system.cpu.commit.op_class_0::SimdFloatAdd            0      0.00%     63.94% # Class of committed instruction
system.cpu.commit.op_class_0::SimdFloatAlu            0      0.00%     63.94% # Class of committed instruction
system.cpu.commit.op_class_0::SimdFloatCmp            0      0.00%     63.94% # Class of committed instruction
system.cpu.commit.op_class_0::SimdFloatCvt            0      0.00%     63.94% # Class of committed instruction
system.cpu.commit.op_class_0::SimdFloatDiv            0      0.00%     63.94% # Class of committed instruction
system.cpu.commit.op_class_0::SimdFloatMisc            0      0.00%     63.94% # Class of committed instruction
system.cpu.commit.op_class_0::SimdFloatMult            0      0.00%     63.94% # Class of committed instruction
system.cpu.commit.op_class_0::SimdFloatMultAcc            0      0.00%     63.94% # Class of committed instruction
system.cpu.commit.op_class_0::SimdFloatSqrt            0      0.00%     63.94% # Class of committed instruction
system.cpu.commit.op_class_0::SimdReduceAdd            0      0.00%     63.94% # Class of committed instruction
system.cpu.commit.op_class_0::SimdReduceAlu            0      0.00%     63.94% # Class of committed instruction
system.cpu.commit.op_class_0::SimdReduceCmp            0      0.00%     63.94% # Class of committed instruction
system.cpu.commit.op_class_0::SimdFloatReduceAdd            0      0.00%     63.94% # Class of committed instruction
system.cpu.commit.op_class_0::SimdFloatReduceCmp            0      0.00%     63.94% # Class of committed instruction
system.cpu.commit.op_class_0::SimdAes               0      0.00%     63.94% # Class of committed instruction
system.cpu.commit.op_class_0::SimdAesMix            0      0.00%     63.94% # Class of committed instruction
system.cpu.commit.op_class_0::SimdSha1Hash            0      0.00%     63.94% # Class of committed instruction
system.cpu.commit.op_class_0::SimdSha1Hash2            0      0.00%     63.94% # Class of committed instruction
system.cpu.commit.op_class_0::SimdSha256Hash            0      0.00%     63.94% # Class of committed instruction
system.cpu.commit.op_class_0::SimdSha256Hash2            0      0.00%     63.94% # Class of committed instruction
system.cpu.commit.op_class_0::SimdShaSigma2            0      0.00%     63.94% # Class of committed instruction
system.cpu.commit.op_class_0::SimdShaSigma3            0      0.00%     63.94% # Class of committed instruction
system.cpu.commit.op_class_0::SimdPredAlu            0      0.00%     63.94% # Class of committed instruction
system.cpu.commit.op_class_0::MemRead          256051     25.11%     89.04% # Class of committed instruction
system.cpu.commit.op_class_0::MemWrite         111727     10.96%    100.00% # Class of committed instruction
system.cpu.commit.op_class_0::FloatMemRead            0      0.00%    100.00% # Class of committed instruction
system.cpu.commit.op_class_0::FloatMemWrite            0      0.00%    100.00% # Class of committed instruction
system.cpu.commit.op_class_0::IprAccess             0      0.00%    100.00% # Class of committed instruction
system.cpu.commit.op_class_0::InstPrefetch            0      0.00%    100.00% # Class of committed instruction
system.cpu.commit.op_class_0::total           1019823                       # Class of committed instruction
system.cpu.commit.refs                         367778                       # Number of memory references committed
system.cpu.commit.swp_count                         0                       # Number of s/w prefetches committed
system.cpu.commit.vec_insts                    110709                       # Number of committed Vector instructions.
system.cpu.committedInsts                     1000001                       # Number of Instructions Simulated
system.cpu.committedOps                       1019737                       # Number of Ops (including micro ops) Simulated
system.cpu.cpi                               0.301224                       # CPI: Cycles Per Instruction
system.cpu.cpi_total                         0.301224                       # CPI: Total CPI of All Threads
system.cpu.decode.BlockedCycles                 53411                       # Number of cycles decode is blocked
system.cpu.decode.BranchMispred                   255                       # Number of times decode detected a branch misprediction
system.cpu.decode.BranchResolved               117578                       # Number of times decode resolved a branch
system.cpu.decode.DecodedInsts                1043050                       # Number of instructions handled by decode
system.cpu.decode.IdleCycles                    52883                       # Number of cycles decode is idle
system.cpu.decode.RunCycles                    142162                       # Number of cycles decode is running
system.cpu.decode.SquashCycles                    819                       # Number of cycles decode is squashing
system.cpu.decode.SquashedInsts                   874                       # Number of squashed instructions handled by decode
system.cpu.decode.UnblockCycles                  9371                       # Number of cycles decode is unblocking
system.cpu.dtb.accesses                             0                       # DTB accesses
system.cpu.dtb.align_faults                         0                       # Number of TLB faults due to alignment restrictions
system.cpu.dtb.domain_faults                        0                       # Number of TLB faults due to domain restrictions
system.cpu.dtb.flush_entries                        0                       # Number of entries that have been flushed from TLB
system.cpu.dtb.flush_tlb                            0                       # Number of times complete TLB was flushed
system.cpu.dtb.flush_tlb_asid                       0                       # Number of times TLB was flushed by ASID
system.cpu.dtb.flush_tlb_mva                        0                       # Number of times TLB was flushed by MVA
system.cpu.dtb.flush_tlb_mva_asid                   0                       # Number of times TLB was flushed by MVA & ASID
system.cpu.dtb.hits                                 0                       # DTB hits
system.cpu.dtb.inst_accesses                        0                       # ITB inst accesses
system.cpu.dtb.inst_hits                            0                       # ITB inst hits
system.cpu.dtb.inst_misses                          0                       # ITB inst misses
system.cpu.dtb.misses                               0                       # DTB misses
system.cpu.dtb.perms_faults                         0                       # Number of TLB faults due to permissions restrictions
system.cpu.dtb.prefetch_faults                      0                       # Number of TLB faults due to prefetch
system.cpu.dtb.read_accesses                        0                       # DTB read accesses
system.cpu.dtb.read_hits                            0                       # DTB read hits
system.cpu.dtb.read_misses                          0                       # DTB read misses
system.cpu.dtb.stage2_mmu.stage2_tlb.accesses            0                       # DTB accesses
system.cpu.dtb.stage2_mmu.stage2_tlb.align_faults            0                       # Number of TLB faults due to alignment restrictions
system.cpu.dtb.stage2_mmu.stage2_tlb.domain_faults            0                       # Number of TLB faults due to domain restrictions
system.cpu.dtb.stage2_mmu.stage2_tlb.flush_entries            0                       # Number of entries that have been flushed from TLB
system.cpu.dtb.stage2_mmu.stage2_tlb.flush_tlb            0                       # Number of times complete TLB was flushed
system.cpu.dtb.stage2_mmu.stage2_tlb.flush_tlb_asid            0                       # Number of times TLB was flushed by ASID
system.cpu.dtb.stage2_mmu.stage2_tlb.flush_tlb_mva            0                       # Number of times TLB was flushed by MVA
system.cpu.dtb.stage2_mmu.stage2_tlb.flush_tlb_mva_asid            0                       # Number of times TLB was flushed by MVA & ASID
system.cpu.dtb.stage2_mmu.stage2_tlb.hits            0                       # DTB hits
system.cpu.dtb.stage2_mmu.stage2_tlb.inst_accesses            0                       # ITB inst accesses
system.cpu.dtb.stage2_mmu.stage2_tlb.inst_hits            0                       # ITB inst hits
system.cpu.dtb.stage2_mmu.stage2_tlb.inst_misses            0                       # ITB inst misses
system.cpu.dtb.stage2_mmu.stage2_tlb.misses            0                       # DTB misses
system.cpu.dtb.stage2_mmu.stage2_tlb.perms_faults            0                       # Number of TLB faults due to permissions restrictions
system.cpu.dtb.stage2_mmu.stage2_tlb.prefetch_faults            0                       # Number of TLB faults due to prefetch
system.cpu.dtb.stage2_mmu.stage2_tlb.read_accesses            0                       # DTB read accesses
system.cpu.dtb.stage2_mmu.stage2_tlb.read_hits            0                       # DTB read hits
system.cpu.dtb.stage2_mmu.stage2_tlb.read_misses            0                       # DTB read misses
system.cpu.dtb.stage2_mmu.stage2_tlb.walker.walkRequestOrigin_Requested::Data            0                       # Table walker requests started/completed, data/inst
system.cpu.dtb.stage2_mmu.stage2_tlb.walker.walkRequestOrigin_Requested::Inst            0                       # Table walker requests started/completed, data/inst
system.cpu.dtb.stage2_mmu.stage2_tlb.walker.walkRequestOrigin_Requested::total            0                       # Table walker requests started/completed, data/inst
system.cpu.dtb.stage2_mmu.stage2_tlb.walker.walkRequestOrigin_Completed::Data            0                       # Table walker requests started/completed, data/inst
system.cpu.dtb.stage2_mmu.stage2_tlb.walker.walkRequestOrigin_Completed::Inst            0                       # Table walker requests started/completed, data/inst
system.cpu.dtb.stage2_mmu.stage2_tlb.walker.walkRequestOrigin_Completed::total            0                       # Table walker requests started/completed, data/inst
system.cpu.dtb.stage2_mmu.stage2_tlb.walker.walkRequestOrigin::total            0                       # Table walker requests started/completed, data/inst
system.cpu.dtb.stage2_mmu.stage2_tlb.walker.walks            0                       # Table walker walks requested
system.cpu.dtb.stage2_mmu.stage2_tlb.write_accesses            0                       # DTB write accesses
system.cpu.dtb.stage2_mmu.stage2_tlb.write_hits            0                       # DTB write hits
system.cpu.dtb.stage2_mmu.stage2_tlb.write_misses            0                       # DTB write misses
system.cpu.dtb.walker.walkRequestOrigin_Requested::Data            0                       # Table walker requests started/completed, data/inst
system.cpu.dtb.walker.walkRequestOrigin_Requested::Inst            0                       # Table walker requests started/completed, data/inst
system.cpu.dtb.walker.walkRequestOrigin_Requested::total            0                       # Table walker requests started/completed, data/inst
system.cpu.dtb.walker.walkRequestOrigin_Completed::Data            0                       # Table walker requests started/completed, data/inst
system.cpu.dtb.walker.walkRequestOrigin_Completed::Inst            0                       # Table walker requests started/completed, data/inst
system.cpu.dtb.walker.walkRequestOrigin_Completed::total            0                       # Table walker requests started/completed, data/inst
system.cpu.dtb.walker.walkRequestOrigin::total            0                       # Table walker requests started/completed, data/inst
system.cpu.dtb.walker.walks                         0                       # Table walker walks requested
system.cpu.dtb.write_accesses                       0                       # DTB write accesses
system.cpu.dtb.write_hits                           0                       # DTB write hits
system.cpu.dtb.write_misses                         0                       # DTB write misses
system.cpu.fetch.Branches                      158083                       # Number of branches that fetch encountered
system.cpu.fetch.CacheLines                     43124                       # Number of cache lines fetched
system.cpu.fetch.Cycles                        202025                       # Number of cycles fetch has run and was not squashing or blocked
system.cpu.fetch.IcacheSquashes                   610                       # Number of outstanding Icache misses that were squashed
system.cpu.fetch.IcacheWaitRetryStallCycles           27                       # Number of stall cycles due to full MSHR
system.cpu.fetch.Insts                        1025887                       # Number of instructions fetch has processed
system.cpu.fetch.MiscStallCycles                    2                       # Number of cycles fetch has spent waiting on interrupts, or bad addresses, or out of MSHRs
system.cpu.fetch.SquashCycles                    2138                       # Number of cycles fetch has spent squashing
system.cpu.fetch.branchRate                  0.524802                       # Number of branch fetches per cycle
system.cpu.fetch.icacheStallCycles              55523                       # Number of cycles fetch is stalled on an Icache miss
system.cpu.fetch.predictedBranches             118441                       # Number of branches that fetch has predicted taken
system.cpu.fetch.rate                        3.405728                       # Number of inst fetches per cycle
system.cpu.fetch.rateDist::samples             258646                       # Number of instructions fetched each cycle (Total)
system.cpu.fetch.rateDist::mean              4.056993                       # Number of instructions fetched each cycle (Total)
system.cpu.fetch.rateDist::stdev             3.379405                       # Number of instructions fetched each cycle (Total)
system.cpu.fetch.rateDist::underflows               0      0.00%      0.00% # Number of instructions fetched each cycle (Total)
system.cpu.fetch.rateDist::0                    92422     35.73%     35.73% # Number of instructions fetched each cycle (Total)
system.cpu.fetch.rateDist::1                     9236      3.57%     39.30% # Number of instructions fetched each cycle (Total)
system.cpu.fetch.rateDist::2                     5854      2.26%     41.57% # Number of instructions fetched each cycle (Total)
system.cpu.fetch.rateDist::3                     5221      2.02%     43.59% # Number of instructions fetched each cycle (Total)
system.cpu.fetch.rateDist::4                     4290      1.66%     45.24% # Number of instructions fetched each cycle (Total)
system.cpu.fetch.rateDist::5                     5836      2.26%     47.50% # Number of instructions fetched each cycle (Total)
system.cpu.fetch.rateDist::6                    12574      4.86%     52.36% # Number of instructions fetched each cycle (Total)
system.cpu.fetch.rateDist::7                    94770     36.64%     89.00% # Number of instructions fetched each cycle (Total)
system.cpu.fetch.rateDist::8                    28443     11.00%    100.00% # Number of instructions fetched each cycle (Total)
system.cpu.fetch.rateDist::overflows                0      0.00%    100.00% # Number of instructions fetched each cycle (Total)
system.cpu.fetch.rateDist::min_value                0                       # Number of instructions fetched each cycle (Total)
system.cpu.fetch.rateDist::max_value                8                       # Number of instructions fetched each cycle (Total)
system.cpu.fetch.rateDist::total               258646                       # Number of instructions fetched each cycle (Total)
system.cpu.icache.prefetcher.num_hwpf_issued          899                       # number of hwpf issued
system.cpu.icache.prefetcher.pfBufferHit           10                       # number of redundant prefetches already in prefetch queue
system.cpu.icache.prefetcher.pfIdentified          961                       # number of prefetch candidates identified
system.cpu.icache.prefetcher.pfInCache              0                       # number of redundant prefetches already in cache/mshr dropped
system.cpu.icache.prefetcher.pfRemovedFull            0                       # number of prefetches dropped due to prefetch queue size
system.cpu.icache.prefetcher.pfSpanPage           317                       # number of prefetches that crossed the page
system.cpu.idleCycles                           42578                       # Total number of cycles that the CPU has spent unscheduled due to idling
system.cpu.iew.branchMispredicts                  940                       # Number of branch mispredicts detected at execute
system.cpu.iew.exec_branches                   154378                       # Number of branches executed
system.cpu.iew.exec_nop                           136                       # number of nop insts executed
system.cpu.iew.exec_rate                     3.421673                       # Inst execution rate
system.cpu.iew.exec_refs                       371397                       # number of memory reference insts executed
system.cpu.iew.exec_stores                     113015                       # Number of stores executed
system.cpu.iew.exec_swp                             0                       # number of swp insts executed
system.cpu.iew.iewBlockCycles                    2174                       # Number of cycles IEW is blocking
system.cpu.iew.iewDispLoadInsts                258663                       # Number of dispatched load instructions
system.cpu.iew.iewDispNonSpecInsts                 72                       # Number of dispatched non-speculative instructions
system.cpu.iew.iewDispSquashedInsts               165                       # Number of squashed instructions skipped by dispatch
system.cpu.iew.iewDispStoreInsts               114354                       # Number of dispatched store instructions
system.cpu.iew.iewDispatchedInsts             1036577                       # Number of instructions dispatched to IQ
system.cpu.iew.iewExecLoadInsts                258382                       # Number of load instructions executed
system.cpu.iew.iewExecSquashedInsts              1483                       # Number of squashed instructions skipped in execute
system.cpu.iew.iewExecutedInsts               1030690                       # Number of executed instructions
system.cpu.iew.iewIQFullEvents                      6                       # Number of times the IQ has become full, causing a stall
system.cpu.iew.iewIdleCycles                        0                       # Number of cycles IEW is idle
system.cpu.iew.iewLSQFullEvents                  1080                       # Number of times the LSQ has become full, causing a stall
system.cpu.iew.iewSquashCycles                    819                       # Number of cycles IEW is squashing
system.cpu.iew.iewUnblockCycles                  1086                       # Number of cycles IEW is unblocking
system.cpu.iew.lsq.thread0.blockedLoads             0                       # Number of blocked loads due to partial load-store forwarding
system.cpu.iew.lsq.thread0.cacheBlocked           530                       # Number of times an access to memory failed due to the cache being blocked
system.cpu.iew.lsq.thread0.forwLoads               99                       # Number of loads that had data forwarded from stores
system.cpu.iew.lsq.thread0.ignoredResponses            0                       # Number of memory responses ignored because the instruction is squashed
system.cpu.iew.lsq.thread0.invAddrLoads             0                       # Number of loads ignored due to an invalid address
system.cpu.iew.lsq.thread0.invAddrSwpfs             0                       # Number of software prefetches ignored due to an invalid address
system.cpu.iew.lsq.thread0.memOrderViolation           17                       # Number of memory ordering violations
system.cpu.iew.lsq.thread0.rescheduledLoads           65                       # Number of loads that were rescheduled
system.cpu.iew.lsq.thread0.squashedLoads         2587                       # Number of loads squashed
system.cpu.iew.lsq.thread0.squashedStores         2627                       # Number of stores squashed
system.cpu.iew.memOrderViolationEvents             17                       # Number of memory order violations
system.cpu.iew.predictedNotTakenIncorrect          783                       # Number of branches that were predicted not taken incorrectly
system.cpu.iew.predictedTakenIncorrect            157                       # Number of branches that were predicted taken incorrectly
system.cpu.iew.wb_consumers                   1284252                       # num instructions consuming a value
system.cpu.iew.wb_count                       1028894                       # cumulative count of insts written-back
system.cpu.iew.wb_fanout                     0.576137                       # average fanout of values written-back
system.cpu.iew.wb_producers                    739905                       # num instructions producing a value
system.cpu.iew.wb_rate                       3.415711                       # insts written-back per cycle
system.cpu.iew.wb_sent                        1029726                       # cumulative count of insts sent to commit
system.cpu.int_regfile_reads                  1295508                       # number of integer regfile reads
system.cpu.int_regfile_writes                  665882                       # number of integer regfile writes
system.cpu.ipc                               3.319792                       # IPC: Instructions Per Cycle
system.cpu.ipc_total                         3.319792                       # IPC: Total IPC of All Threads
system.cpu.iq.FU_type_0::No_OpClass                13      0.00%      0.00% # Type of FU issued
system.cpu.iq.FU_type_0::IntAlu                579398     56.13%     56.13% # Type of FU issued
system.cpu.iq.FU_type_0::IntMult                 6239      0.60%     56.74% # Type of FU issued
system.cpu.iq.FU_type_0::IntDiv                    10      0.00%     56.74% # Type of FU issued
system.cpu.iq.FU_type_0::FloatAdd                4094      0.40%     57.14% # Type of FU issued
system.cpu.iq.FU_type_0::FloatCmp               15848      1.54%     58.67% # Type of FU issued
system.cpu.iq.FU_type_0::FloatCvt                6163      0.60%     59.27% # Type of FU issued
system.cpu.iq.FU_type_0::FloatMult              21996      2.13%     61.40% # Type of FU issued
system.cpu.iq.FU_type_0::FloatMultAcc           21994      2.13%     63.53% # Type of FU issued
system.cpu.iq.FU_type_0::FloatDiv                  22      0.00%     63.53% # Type of FU issued
system.cpu.iq.FU_type_0::FloatMisc               2071      0.20%     63.73% # Type of FU issued
system.cpu.iq.FU_type_0::FloatSqrt                  0      0.00%     63.73% # Type of FU issued
system.cpu.iq.FU_type_0::SimdAdd                   43      0.00%     63.74% # Type of FU issued
system.cpu.iq.FU_type_0::SimdAddAcc                 0      0.00%     63.74% # Type of FU issued
system.cpu.iq.FU_type_0::SimdAlu                   51      0.00%     63.74% # Type of FU issued
system.cpu.iq.FU_type_0::SimdCmp                   52      0.01%     63.75% # Type of FU issued
system.cpu.iq.FU_type_0::SimdCvt                    0      0.00%     63.75% # Type of FU issued
system.cpu.iq.FU_type_0::SimdMisc                2087      0.20%     63.95% # Type of FU issued
system.cpu.iq.FU_type_0::SimdMult                   0      0.00%     63.95% # Type of FU issued
system.cpu.iq.FU_type_0::SimdMultAcc                0      0.00%     63.95% # Type of FU issued
system.cpu.iq.FU_type_0::SimdShift                  0      0.00%     63.95% # Type of FU issued
system.cpu.iq.FU_type_0::SimdShiftAcc               0      0.00%     63.95% # Type of FU issued
system.cpu.iq.FU_type_0::SimdDiv                    0      0.00%     63.95% # Type of FU issued
system.cpu.iq.FU_type_0::SimdSqrt                   0      0.00%     63.95% # Type of FU issued
system.cpu.iq.FU_type_0::SimdFloatAdd               0      0.00%     63.95% # Type of FU issued
system.cpu.iq.FU_type_0::SimdFloatAlu               0      0.00%     63.95% # Type of FU issued
system.cpu.iq.FU_type_0::SimdFloatCmp               0      0.00%     63.95% # Type of FU issued
system.cpu.iq.FU_type_0::SimdFloatCvt               0      0.00%     63.95% # Type of FU issued
system.cpu.iq.FU_type_0::SimdFloatDiv               0      0.00%     63.95% # Type of FU issued
system.cpu.iq.FU_type_0::SimdFloatMisc              0      0.00%     63.95% # Type of FU issued
system.cpu.iq.FU_type_0::SimdFloatMult              0      0.00%     63.95% # Type of FU issued
system.cpu.iq.FU_type_0::SimdFloatMultAcc            0      0.00%     63.95% # Type of FU issued
system.cpu.iq.FU_type_0::SimdFloatSqrt              0      0.00%     63.95% # Type of FU issued
system.cpu.iq.FU_type_0::SimdReduceAdd              0      0.00%     63.95% # Type of FU issued
system.cpu.iq.FU_type_0::SimdReduceAlu              0      0.00%     63.95% # Type of FU issued
system.cpu.iq.FU_type_0::SimdReduceCmp              0      0.00%     63.95% # Type of FU issued
system.cpu.iq.FU_type_0::SimdFloatReduceAdd            0      0.00%     63.95% # Type of FU issued
system.cpu.iq.FU_type_0::SimdFloatReduceCmp            0      0.00%     63.95% # Type of FU issued
system.cpu.iq.FU_type_0::SimdAes                    0      0.00%     63.95% # Type of FU issued
system.cpu.iq.FU_type_0::SimdAesMix                 0      0.00%     63.95% # Type of FU issued
system.cpu.iq.FU_type_0::SimdSha1Hash               0      0.00%     63.95% # Type of FU issued
system.cpu.iq.FU_type_0::SimdSha1Hash2              0      0.00%     63.95% # Type of FU issued
system.cpu.iq.FU_type_0::SimdSha256Hash             0      0.00%     63.95% # Type of FU issued
system.cpu.iq.FU_type_0::SimdSha256Hash2            0      0.00%     63.95% # Type of FU issued
system.cpu.iq.FU_type_0::SimdShaSigma2              0      0.00%     63.95% # Type of FU issued
system.cpu.iq.FU_type_0::SimdShaSigma3              0      0.00%     63.95% # Type of FU issued
system.cpu.iq.FU_type_0::SimdPredAlu                0      0.00%     63.95% # Type of FU issued
system.cpu.iq.FU_type_0::MemRead               258685     25.06%     89.01% # Type of FU issued
system.cpu.iq.FU_type_0::MemWrite              113413     10.99%    100.00% # Type of FU issued
system.cpu.iq.FU_type_0::FloatMemRead               0      0.00%    100.00% # Type of FU issued
system.cpu.iq.FU_type_0::FloatMemWrite              0      0.00%    100.00% # Type of FU issued
system.cpu.iq.FU_type_0::IprAccess                  0      0.00%    100.00% # Type of FU issued
system.cpu.iq.FU_type_0::InstPrefetch               0      0.00%    100.00% # Type of FU issued
system.cpu.iq.FU_type_0::total                1032179                       # Type of FU issued
system.cpu.iq.fp_alu_accesses                       0                       # Number of floating point alu accesses
system.cpu.iq.fp_inst_queue_reads                   0                       # Number of floating instruction queue reads
system.cpu.iq.fp_inst_queue_wakeup_accesses            0                       # Number of floating instruction queue wakeup accesses
system.cpu.iq.fp_inst_queue_writes                  0                       # Number of floating instruction queue writes
system.cpu.iq.fu_busy_cnt                        1664                       # FU busy when requested
system.cpu.iq.fu_busy_rate                   0.001612                       # FU busy rate (busy events/executed inst)
system.cpu.iq.fu_full::No_OpClass                   0      0.00%      0.00% # attempts to use FU when none available
system.cpu.iq.fu_full::IntAlu                     278     16.71%     16.71% # attempts to use FU when none available
system.cpu.iq.fu_full::IntMult                      0      0.00%     16.71% # attempts to use FU when none available
system.cpu.iq.fu_full::IntDiv                       0      0.00%     16.71% # attempts to use FU when none available
system.cpu.iq.fu_full::FloatAdd                     0      0.00%     16.71% # attempts to use FU when none available
system.cpu.iq.fu_full::FloatCmp                     0      0.00%     16.71% # attempts to use FU when none available
system.cpu.iq.fu_full::FloatCvt                     0      0.00%     16.71% # attempts to use FU when none available
system.cpu.iq.fu_full::FloatMult                  356     21.39%     38.10% # attempts to use FU when none available
system.cpu.iq.fu_full::FloatMultAcc                 8      0.48%     38.58% # attempts to use FU when none available
system.cpu.iq.fu_full::FloatDiv                     0      0.00%     38.58% # attempts to use FU when none available
system.cpu.iq.fu_full::FloatMisc                    3      0.18%     38.76% # attempts to use FU when none available
system.cpu.iq.fu_full::FloatSqrt                    0      0.00%     38.76% # attempts to use FU when none available
system.cpu.iq.fu_full::SimdAdd                      0      0.00%     38.76% # attempts to use FU when none available
system.cpu.iq.fu_full::SimdAddAcc                   0      0.00%     38.76% # attempts to use FU when none available
system.cpu.iq.fu_full::SimdAlu                      2      0.12%     38.88% # attempts to use FU when none available
system.cpu.iq.fu_full::SimdCmp                      4      0.24%     39.12% # attempts to use FU when none available
system.cpu.iq.fu_full::SimdCvt                      0      0.00%     39.12% # attempts to use FU when none available
system.cpu.iq.fu_full::SimdMisc                     0      0.00%     39.12% # attempts to use FU when none available
system.cpu.iq.fu_full::SimdMult                     0      0.00%     39.12% # attempts to use FU when none available
system.cpu.iq.fu_full::SimdMultAcc                  0      0.00%     39.12% # attempts to use FU when none available
system.cpu.iq.fu_full::SimdShift                    0      0.00%     39.12% # attempts to use FU when none available
system.cpu.iq.fu_full::SimdShiftAcc                 0      0.00%     39.12% # attempts to use FU when none available
system.cpu.iq.fu_full::SimdDiv                      0      0.00%     39.12% # attempts to use FU when none available
system.cpu.iq.fu_full::SimdSqrt                     0      0.00%     39.12% # attempts to use FU when none available
system.cpu.iq.fu_full::SimdFloatAdd                 0      0.00%     39.12% # attempts to use FU when none available
system.cpu.iq.fu_full::SimdFloatAlu                 0      0.00%     39.12% # attempts to use FU when none available
system.cpu.iq.fu_full::SimdFloatCmp                 0      0.00%     39.12% # attempts to use FU when none available
system.cpu.iq.fu_full::SimdFloatCvt                 0      0.00%     39.12% # attempts to use FU when none available
system.cpu.iq.fu_full::SimdFloatDiv                 0      0.00%     39.12% # attempts to use FU when none available
system.cpu.iq.fu_full::SimdFloatMisc                0      0.00%     39.12% # attempts to use FU when none available
system.cpu.iq.fu_full::SimdFloatMult                0      0.00%     39.12% # attempts to use FU when none available
system.cpu.iq.fu_full::SimdFloatMultAcc             0      0.00%     39.12% # attempts to use FU when none available
system.cpu.iq.fu_full::SimdFloatSqrt                0      0.00%     39.12% # attempts to use FU when none available
system.cpu.iq.fu_full::SimdReduceAdd                0      0.00%     39.12% # attempts to use FU when none available
system.cpu.iq.fu_full::SimdReduceAlu                0      0.00%     39.12% # attempts to use FU when none available
system.cpu.iq.fu_full::SimdReduceCmp                0      0.00%     39.12% # attempts to use FU when none available
system.cpu.iq.fu_full::SimdFloatReduceAdd            0      0.00%     39.12% # attempts to use FU when none available
system.cpu.iq.fu_full::SimdFloatReduceCmp            0      0.00%     39.12% # attempts to use FU when none available
system.cpu.iq.fu_full::SimdAes                      0      0.00%     39.12% # attempts to use FU when none available
system.cpu.iq.fu_full::SimdAesMix                   0      0.00%     39.12% # attempts to use FU when none available
system.cpu.iq.fu_full::SimdSha1Hash                 0      0.00%     39.12% # attempts to use FU when none available
system.cpu.iq.fu_full::SimdSha1Hash2                0      0.00%     39.12% # attempts to use FU when none available
system.cpu.iq.fu_full::SimdSha256Hash               0      0.00%     39.12% # attempts to use FU when none available
system.cpu.iq.fu_full::SimdSha256Hash2              0      0.00%     39.12% # attempts to use FU when none available
system.cpu.iq.fu_full::SimdShaSigma2                0      0.00%     39.12% # attempts to use FU when none available
system.cpu.iq.fu_full::SimdShaSigma3                0      0.00%     39.12% # attempts to use FU when none available
system.cpu.iq.fu_full::SimdPredAlu                  0      0.00%     39.12% # attempts to use FU when none available
system.cpu.iq.fu_full::MemRead                    681     40.93%     80.05% # attempts to use FU when none available
system.cpu.iq.fu_full::MemWrite                   332     19.95%    100.00% # attempts to use FU when none available
system.cpu.iq.fu_full::FloatMemRead                 0      0.00%    100.00% # attempts to use FU when none available
system.cpu.iq.fu_full::FloatMemWrite                0      0.00%    100.00% # attempts to use FU when none available
system.cpu.iq.fu_full::IprAccess                    0      0.00%    100.00% # attempts to use FU when none available
system.cpu.iq.fu_full::InstPrefetch                 0      0.00%    100.00% # attempts to use FU when none available
system.cpu.iq.int_alu_accesses                 922210                       # Number of integer alu accesses
system.cpu.iq.int_inst_queue_reads            2102015                       # Number of integer instruction queue reads
system.cpu.iq.int_inst_queue_wakeup_accesses       917961                       # Number of integer instruction queue wakeup accesses
system.cpu.iq.int_inst_queue_writes            940582                       # Number of integer instruction queue writes
system.cpu.iq.iqInstsAdded                    1036369                       # Number of instructions added to the IQ (excludes non-spec)
system.cpu.iq.iqInstsIssued                   1032179                       # Number of instructions issued
system.cpu.iq.iqNonSpecInstsAdded                  72                       # Number of non-speculative instructions added to the IQ
system.cpu.iq.iqSquashedInstsExamined           16595                       # Number of squashed instructions iterated over during squash; mainly for profiling
system.cpu.iq.iqSquashedInstsIssued               278                       # Number of squashed instructions issued
system.cpu.iq.iqSquashedNonSpecRemoved             16                       # Number of squashed non-spec instructions that were removed
system.cpu.iq.iqSquashedOperandsExamined        13344                       # Number of squashed operands that are examined and possibly removed from graph
system.cpu.iq.issued_per_cycle::samples        258646                       # Number of insts issued each cycle
system.cpu.iq.issued_per_cycle::mean         3.990702                       # Number of insts issued each cycle
system.cpu.iq.issued_per_cycle::stdev        2.868623                       # Number of insts issued each cycle
system.cpu.iq.issued_per_cycle::underflows            0      0.00%      0.00% # Number of insts issued each cycle
system.cpu.iq.issued_per_cycle::0               57339     22.17%     22.17% # Number of insts issued each cycle
system.cpu.iq.issued_per_cycle::1               14192      5.49%     27.66% # Number of insts issued each cycle
system.cpu.iq.issued_per_cycle::2               13757      5.32%     32.97% # Number of insts issued each cycle
system.cpu.iq.issued_per_cycle::3               28776     11.13%     44.10% # Number of insts issued each cycle
system.cpu.iq.issued_per_cycle::4               24315      9.40%     53.50% # Number of insts issued each cycle
system.cpu.iq.issued_per_cycle::5               22108      8.55%     62.05% # Number of insts issued each cycle
system.cpu.iq.issued_per_cycle::6               14646      5.66%     67.71% # Number of insts issued each cycle
system.cpu.iq.issued_per_cycle::7               59635     23.06%     90.77% # Number of insts issued each cycle
system.cpu.iq.issued_per_cycle::8               23878      9.23%    100.00% # Number of insts issued each cycle
system.cpu.iq.issued_per_cycle::overflows            0      0.00%    100.00% # Number of insts issued each cycle
system.cpu.iq.issued_per_cycle::min_value            0                       # Number of insts issued each cycle
system.cpu.iq.issued_per_cycle::max_value            8                       # Number of insts issued each cycle
system.cpu.iq.issued_per_cycle::total          258646                       # Number of insts issued each cycle
system.cpu.iq.rate                           3.426616                       # Inst issue rate
system.cpu.iq.vec_alu_accesses                 111620                       # Number of vector alu accesses
system.cpu.iq.vec_inst_queue_reads             222925                       # Number of vector instruction queue reads
system.cpu.iq.vec_inst_queue_wakeup_accesses       110933                       # Number of vector instruction queue wakeup accesses
system.cpu.iq.vec_inst_queue_writes            112469                       # Number of vector instruction queue writes
system.cpu.itb.accesses                             0                       # DTB accesses
system.cpu.itb.align_faults                         0                       # Number of TLB faults due to alignment restrictions
system.cpu.itb.domain_faults                        0                       # Number of TLB faults due to domain restrictions
system.cpu.itb.flush_entries                        0                       # Number of entries that have been flushed from TLB
system.cpu.itb.flush_tlb                            0                       # Number of times complete TLB was flushed
system.cpu.itb.flush_tlb_asid                       0                       # Number of times TLB was flushed by ASID
system.cpu.itb.flush_tlb_mva                        0                       # Number of times TLB was flushed by MVA
system.cpu.itb.flush_tlb_mva_asid                   0                       # Number of times TLB was flushed by MVA & ASID
system.cpu.itb.hits                                 0                       # DTB hits
system.cpu.itb.inst_accesses                        0                       # ITB inst accesses
system.cpu.itb.inst_hits                            0                       # ITB inst hits
system.cpu.itb.inst_misses                          0                       # ITB inst misses
system.cpu.itb.misses                               0                       # DTB misses
system.cpu.itb.perms_faults                         0                       # Number of TLB faults due to permissions restrictions
system.cpu.itb.prefetch_faults                      0                       # Number of TLB faults due to prefetch
system.cpu.itb.read_accesses                        0                       # DTB read accesses
system.cpu.itb.read_hits                            0                       # DTB read hits
system.cpu.itb.read_misses                          0                       # DTB read misses
system.cpu.itb.stage2_mmu.stage2_tlb.accesses            0                       # DTB accesses
system.cpu.itb.stage2_mmu.stage2_tlb.align_faults            0                       # Number of TLB faults due to alignment restrictions
system.cpu.itb.stage2_mmu.stage2_tlb.domain_faults            0                       # Number of TLB faults due to domain restrictions
system.cpu.itb.stage2_mmu.stage2_tlb.flush_entries            0                       # Number of entries that have been flushed from TLB
system.cpu.itb.stage2_mmu.stage2_tlb.flush_tlb            0                       # Number of times complete TLB was flushed
system.cpu.itb.stage2_mmu.stage2_tlb.flush_tlb_asid            0                       # Number of times TLB was flushed by ASID
system.cpu.itb.stage2_mmu.stage2_tlb.flush_tlb_mva            0                       # Number of times TLB was flushed by MVA
system.cpu.itb.stage2_mmu.stage2_tlb.flush_tlb_mva_asid            0                       # Number of times TLB was flushed by MVA & ASID
system.cpu.itb.stage2_mmu.stage2_tlb.hits            0                       # DTB hits
system.cpu.itb.stage2_mmu.stage2_tlb.inst_accesses            0                       # ITB inst accesses
system.cpu.itb.stage2_mmu.stage2_tlb.inst_hits            0                       # ITB inst hits
system.cpu.itb.stage2_mmu.stage2_tlb.inst_misses            0                       # ITB inst misses
system.cpu.itb.stage2_mmu.stage2_tlb.misses            0                       # DTB misses
system.cpu.itb.stage2_mmu.stage2_tlb.perms_faults            0                       # Number of TLB faults due to permissions restrictions
system.cpu.itb.stage2_mmu.stage2_tlb.prefetch_faults            0                       # Number of TLB faults due to prefetch
system.cpu.itb.stage2_mmu.stage2_tlb.read_accesses            0                       # DTB read accesses
system.cpu.itb.stage2_mmu.stage2_tlb.read_hits            0                       # DTB read hits
system.cpu.itb.stage2_mmu.stage2_tlb.read_misses            0                       # DTB read misses
system.cpu.itb.stage2_mmu.stage2_tlb.walker.walkRequestOrigin_Requested::Data            0                       # Table walker requests started/completed, data/inst
system.cpu.itb.stage2_mmu.stage2_tlb.walker.walkRequestOrigin_Requested::Inst            0                       # Table walker requests started/completed, data/inst
system.cpu.itb.stage2_mmu.stage2_tlb.walker.walkRequestOrigin_Requested::total            0                       # Table walker requests started/completed, data/inst
system.cpu.itb.stage2_mmu.stage2_tlb.walker.walkRequestOrigin_Completed::Data            0                       # Table walker requests started/completed, data/inst
system.cpu.itb.stage2_mmu.stage2_tlb.walker.walkRequestOrigin_Completed::Inst            0                       # Table walker requests started/completed, data/inst
system.cpu.itb.stage2_mmu.stage2_tlb.walker.walkRequestOrigin_Completed::total            0                       # Table walker requests started/completed, data/inst
system.cpu.itb.stage2_mmu.stage2_tlb.walker.walkRequestOrigin::total            0                       # Table walker requests started/completed, data/inst
system.cpu.itb.stage2_mmu.stage2_tlb.walker.walks            0                       # Table walker walks requested
system.cpu.itb.stage2_mmu.stage2_tlb.write_accesses            0                       # DTB write accesses
system.cpu.itb.stage2_mmu.stage2_tlb.write_hits            0                       # DTB write hits
system.cpu.itb.stage2_mmu.stage2_tlb.write_misses            0                       # DTB write misses
system.cpu.itb.walker.walkRequestOrigin_Requested::Data            0                       # Table walker requests started/completed, data/inst
system.cpu.itb.walker.walkRequestOrigin_Requested::Inst            0                       # Table walker requests started/completed, data/inst
system.cpu.itb.walker.walkRequestOrigin_Requested::total            0                       # Table walker requests started/completed, data/inst
system.cpu.itb.walker.walkRequestOrigin_Completed::Data            0                       # Table walker requests started/completed, data/inst
system.cpu.itb.walker.walkRequestOrigin_Completed::Inst            0                       # Table walker requests started/completed, data/inst
system.cpu.itb.walker.walkRequestOrigin_Completed::total            0                       # Table walker requests started/completed, data/inst
system.cpu.itb.walker.walkRequestOrigin::total            0                       # Table walker requests started/completed, data/inst
system.cpu.itb.walker.walks                         0                       # Table walker walks requested
system.cpu.itb.write_accesses                       0                       # DTB write accesses
system.cpu.itb.write_hits                           0                       # DTB write hits
system.cpu.itb.write_misses                         0                       # DTB write misses
system.cpu.memDep0.conflictingLoads              2054                       # Number of conflicting loads.
system.cpu.memDep0.conflictingStores             2061                       # Number of conflicting stores.
system.cpu.memDep0.insertedLoads               258663                       # Number of loads inserted to the mem dependence unit.
system.cpu.memDep0.insertedStores              114354                       # Number of stores inserted to the mem dependence unit.
system.cpu.misc_regfile_reads                  949461                       # number of misc regfile reads
system.cpu.misc_regfile_writes                  70292                       # number of misc regfile writes
system.cpu.numCycles                           301224                       # number of cpu cycles simulated
system.cpu.numWorkItemsCompleted                    0                       # number of work items this cpu completed
system.cpu.numWorkItemsStarted                      0                       # number of work items this cpu started
system.cpu.rename.BlockCycles                    3236                       # Number of cycles rename is blocking
system.cpu.rename.CommittedMaps               1206644                       # Number of HB maps that are committed
system.cpu.rename.IQFullEvents                   3143                       # Number of times rename has blocked due to IQ full
system.cpu.rename.IdleCycles                    57809                       # Number of cycles rename is idle
system.cpu.rename.LQFullEvents                   1517                       # Number of times rename has blocked due to LQ full
system.cpu.rename.ROBFullEvents                     3                       # Number of times rename has blocked due to ROB full
system.cpu.rename.RenameLookups               2149693                       # Number of register rename lookups that rename has made
system.cpu.rename.RenamedInsts                1040133                       # Number of instructions processed by rename
system.cpu.rename.RenamedOperands             1226264                       # Number of destination operands rename has renamed
system.cpu.rename.RunCycles                    146560                       # Number of cycles rename is running
system.cpu.rename.SQFullEvents                  34112                       # Number of times rename has blocked due to SQ full
system.cpu.rename.SquashCycles                    819                       # Number of cycles rename is squashing
system.cpu.rename.UnblockCycles                 43111                       # Number of cycles rename is unblocking
system.cpu.rename.UndoneMaps                    19440                       # Number of HB maps that are undone due to squashing
system.cpu.rename.int_rename_lookups          1306832                       # Number of integer rename lookups
system.cpu.rename.serializeStallCycles           7111                       # count of cycles rename stalled for serializing inst
system.cpu.rename.serializingInsts                295                       # count of serializing insts renamed
system.cpu.rename.skidInsts                     45317                       # count of insts added to the skid buffer
system.cpu.rename.tempSerializingInsts             72                       # count of temporary serializing insts renamed
system.cpu.rename.vec_rename_lookups           172206                       # Number of vector rename lookups
system.cpu.rob.rob_reads                      1261618                       # The number of ROB reads
system.cpu.rob.rob_writes                     2075099                       # The number of ROB writes
system.cpu.timesIdled                             440                       # Number of times that the entire CPU went into an idle state and unscheduled itself
system.cpu.vec_regfile_reads                   171363                       # number of vector regfile reads
system.cpu.vec_regfile_writes                   94588                       # number of vector regfile writes
system.cpu.workload.numSyscalls                     7                       # Number of system calls
system.membus.snoop_filter.hit_multi_requests            0                       # Number of requests hitting in the snoop filter with multiple (>1) holders of the requested data.
system.membus.snoop_filter.hit_multi_snoops            0                       # Number of snoops hitting in the snoop filter with multiple (>1) holders of the requested data.
system.membus.snoop_filter.hit_single_requests            0                       # Number of requests hitting in the snoop filter with a single holder of the requested data.
system.membus.snoop_filter.hit_single_snoops            0                       # Number of snoops hitting in the snoop filter with a single holder of the requested data.
system.membus.snoop_filter.tot_requests          1857                       # Total number of requests made to the snoop filter.
system.membus.snoop_filter.tot_snoops               0                       # Total number of snoops made to the snoop filter.
system.tol2bus.snoop_filter.hit_multi_requests            1                       # Number of requests hitting in the snoop filter with multiple (>1) holders of the requested data.
system.tol2bus.snoop_filter.hit_multi_snoops            0                       # Number of snoops hitting in the snoop filter with multiple (>1) holders of the requested data.
system.tol2bus.snoop_filter.hit_single_requests         1238                       # Number of requests hitting in the snoop filter with a single holder of the requested data.
system.tol2bus.snoop_filter.hit_single_snoops            0                       # Number of snoops hitting in the snoop filter with a single holder of the requested data.
system.tol2bus.snoop_filter.tot_requests         3745                       # Total number of requests made to the snoop filter.
system.tol2bus.snoop_filter.tot_snoops              0                       # Total number of snoops made to the snoop filter.
system.membus.trans_dist::ReadResp                613                       # Transaction distribution
system.membus.trans_dist::ReadExReq               698                       # Transaction distribution
system.membus.trans_dist::ReadExResp              698                       # Transaction distribution
system.membus.trans_dist::ReadSharedReq           613                       # Transaction distribution
system.membus.trans_dist::InvalidateReq           546                       # Transaction distribution
system.membus.pkt_count_system.l2.mem_side::system.mem_ctrls.port         3168                       # Packet count per connected master and slave (bytes)
system.membus.pkt_count::total                   3168                       # Packet count per connected master and slave (bytes)
system.membus.pkt_size_system.l2.mem_side::system.mem_ctrls.port        83904                       # Cumulative packet size per connected master and slave (bytes)
system.membus.pkt_size::total                   83904                       # Cumulative packet size per connected master and slave (bytes)
system.membus.snoops                                0                       # Total snoops (count)
system.membus.snoopTraffic                          0                       # Total snoop traffic (bytes)
system.membus.snoop_fanout::samples              1857                       # Request fanout histogram
system.membus.snoop_fanout::mean                    0                       # Request fanout histogram
system.membus.snoop_fanout::stdev                   0                       # Request fanout histogram
system.membus.snoop_fanout::underflows              0      0.00%      0.00% # Request fanout histogram
system.membus.snoop_fanout::0                    1857    100.00%    100.00% # Request fanout histogram
system.membus.snoop_fanout::1                       0      0.00%    100.00% # Request fanout histogram
system.membus.snoop_fanout::overflows               0      0.00%    100.00% # Request fanout histogram
system.membus.snoop_fanout::min_value               0                       # Request fanout histogram
system.membus.snoop_fanout::max_value               0                       # Request fanout histogram
system.membus.snoop_fanout::total                1857                       # Request fanout histogram
system.membus.reqLayer0.occupancy             2147000                       # Layer occupancy (ticks)
system.membus.reqLayer0.utilization               1.4                       # Layer utilization (%)
system.membus.respLayer1.occupancy            6918500                       # Layer occupancy (ticks)
system.membus.respLayer1.utilization              4.6                       # Layer utilization (%)
system.membus.power_state.pwrStateResidencyTicks::UNDEFINED    150611500                       # Cumulative time (in ticks) in various power states
system.tol2bus.trans_dist::ReadResp              1055                       # Transaction distribution
system.tol2bus.trans_dist::WritebackDirty          723                       # Transaction distribution
system.tol2bus.trans_dist::WritebackClean          429                       # Transaction distribution
system.tol2bus.trans_dist::CleanEvict              86                       # Transaction distribution
system.tol2bus.trans_dist::ReadExReq              906                       # Transaction distribution
system.tol2bus.trans_dist::ReadExResp             906                       # Transaction distribution
system.tol2bus.trans_dist::ReadCleanReq           678                       # Transaction distribution
system.tol2bus.trans_dist::ReadSharedReq          377                       # Transaction distribution
system.tol2bus.trans_dist::InvalidateReq          546                       # Transaction distribution
system.tol2bus.trans_dist::InvalidateResp          546                       # Transaction distribution
system.tol2bus.pkt_count_system.cpu.icache.mem_side::system.l2.cpu_side         1785                       # Packet count per connected master and slave (bytes)
system.tol2bus.pkt_count_system.cpu.dcache.mem_side::system.l2.cpu_side         4467                       # Packet count per connected master and slave (bytes)
system.tol2bus.pkt_count::total                  6252                       # Packet count per connected master and slave (bytes)
system.tol2bus.pkt_size_system.cpu.icache.mem_side::system.l2.cpu_side        70848                       # Cumulative packet size per connected master and slave (bytes)
system.tol2bus.pkt_size_system.cpu.dcache.mem_side::system.l2.cpu_side       128384                       # Cumulative packet size per connected master and slave (bytes)
system.tol2bus.pkt_size::total                 199232                       # Cumulative packet size per connected master and slave (bytes)
system.tol2bus.snoops                               0                       # Total snoops (count)
system.tol2bus.snoopTraffic                         0                       # Total snoop traffic (bytes)
system.tol2bus.snoop_fanout::samples             2507                       # Request fanout histogram
system.tol2bus.snoop_fanout::mean            0.000399                       # Request fanout histogram
system.tol2bus.snoop_fanout::stdev           0.019972                       # Request fanout histogram
system.tol2bus.snoop_fanout::underflows             0      0.00%      0.00% # Request fanout histogram
system.tol2bus.snoop_fanout::0                   2506     99.96%     99.96% # Request fanout histogram
system.tol2bus.snoop_fanout::1                      1      0.04%    100.00% # Request fanout histogram
system.tol2bus.snoop_fanout::2                      0      0.00%    100.00% # Request fanout histogram
system.tol2bus.snoop_fanout::overflows              0      0.00%    100.00% # Request fanout histogram
system.tol2bus.snoop_fanout::min_value              0                       # Request fanout histogram
system.tol2bus.snoop_fanout::max_value              1                       # Request fanout histogram
system.tol2bus.snoop_fanout::total               2507                       # Request fanout histogram
system.tol2bus.reqLayer0.occupancy            3054402                       # Layer occupancy (ticks)
system.tol2bus.reqLayer0.utilization              2.0                       # Layer utilization (%)
system.tol2bus.respLayer1.occupancy           2199496                       # Layer occupancy (ticks)
system.tol2bus.respLayer1.utilization             1.5                       # Layer utilization (%)
system.tol2bus.respLayer0.occupancy           1017000                       # Layer occupancy (ticks)
system.tol2bus.respLayer0.utilization             0.7                       # Layer utilization (%)
system.tol2bus.power_state.pwrStateResidencyTicks::UNDEFINED    150611500                       # Cumulative time (in ticks) in various power states
system.voltage_domain.voltage                       1                       # Voltage in Volts
system.clk_domain.clock                          1000                       # Clock period in ticks
system.l2.demand_hits::.cpu.inst                  101                       # number of demand (read+write) hits
system.l2.demand_hits::.cpu.data                  483                       # number of demand (read+write) hits
system.l2.demand_hits::.cpu.icache.prefetcher           66                       # number of demand (read+write) hits
system.l2.demand_hits::total                      650                       # number of demand (read+write) hits
system.l2.overall_hits::.cpu.inst                 101                       # number of overall hits
system.l2.overall_hits::.cpu.data                 483                       # number of overall hits
system.l2.overall_hits::.cpu.icache.prefetcher           66                       # number of overall hits
system.l2.overall_hits::total                     650                       # number of overall hits
system.l2.demand_misses::.cpu.inst                511                       # number of demand (read+write) misses
system.l2.demand_misses::.cpu.data                800                       # number of demand (read+write) misses
system.l2.demand_misses::total                   1311                       # number of demand (read+write) misses
system.l2.overall_misses::.cpu.inst               511                       # number of overall misses
system.l2.overall_misses::.cpu.data               800                       # number of overall misses
system.l2.overall_misses::total                  1311                       # number of overall misses
system.l2.demand_miss_latency::.cpu.inst     40377000                       # number of demand (read+write) miss cycles
system.l2.demand_miss_latency::.cpu.data     62678500                       # number of demand (read+write) miss cycles
system.l2.demand_miss_latency::total        103055500                       # number of demand (read+write) miss cycles
system.l2.overall_miss_latency::.cpu.inst     40377000                       # number of overall miss cycles
system.l2.overall_miss_latency::.cpu.data     62678500                       # number of overall miss cycles
system.l2.overall_miss_latency::total       103055500                       # number of overall miss cycles
system.l2.demand_accesses::.cpu.inst              612                       # number of demand (read+write) accesses
system.l2.demand_accesses::.cpu.data             1283                       # number of demand (read+write) accesses
system.l2.demand_accesses::.cpu.icache.prefetcher           66                       # number of demand (read+write) accesses
system.l2.demand_accesses::total                 1961                       # number of demand (read+write) accesses
system.l2.overall_accesses::.cpu.inst             612                       # number of overall (read+write) accesses
system.l2.overall_accesses::.cpu.data            1283                       # number of overall (read+write) accesses
system.l2.overall_accesses::.cpu.icache.prefetcher           66                       # number of overall (read+write) accesses
system.l2.overall_accesses::total                1961                       # number of overall (read+write) accesses
system.l2.demand_miss_rate::.cpu.inst        0.834967                       # miss rate for demand accesses
system.l2.demand_miss_rate::.cpu.data        0.623539                       # miss rate for demand accesses
system.l2.demand_miss_rate::total            0.668536                       # miss rate for demand accesses
system.l2.overall_miss_rate::.cpu.inst       0.834967                       # miss rate for overall accesses
system.l2.overall_miss_rate::.cpu.data       0.623539                       # miss rate for overall accesses
system.l2.overall_miss_rate::total           0.668536                       # miss rate for overall accesses
system.l2.demand_avg_miss_latency::.cpu.inst 79015.655577                       # average overall miss latency
system.l2.demand_avg_miss_latency::.cpu.data 78348.125000                       # average overall miss latency
system.l2.demand_avg_miss_latency::total 78608.314264                       # average overall miss latency
system.l2.overall_avg_miss_latency::.cpu.inst 79015.655577                       # average overall miss latency
system.l2.overall_avg_miss_latency::.cpu.data 78348.125000                       # average overall miss latency
system.l2.overall_avg_miss_latency::total 78608.314264                       # average overall miss latency
system.l2.blocked_cycles::no_mshrs                  0                       # number of cycles access was blocked
system.l2.blocked_cycles::no_targets                0                       # number of cycles access was blocked
system.l2.blocked::no_mshrs                         0                       # number of cycles access was blocked
system.l2.blocked::no_targets                       0                       # number of cycles access was blocked
system.l2.avg_blocked_cycles::no_mshrs            nan                       # average number of cycles each access was blocked
system.l2.avg_blocked_cycles::no_targets          nan                       # average number of cycles each access was blocked
system.l2.demand_mshr_misses::.cpu.inst           511                       # number of demand (read+write) MSHR misses
system.l2.demand_mshr_misses::.cpu.data           800                       # number of demand (read+write) MSHR misses
system.l2.demand_mshr_misses::total              1311                       # number of demand (read+write) MSHR misses
system.l2.overall_mshr_misses::.cpu.inst          511                       # number of overall MSHR misses
system.l2.overall_mshr_misses::.cpu.data          800                       # number of overall MSHR misses
system.l2.overall_mshr_misses::total             1311                       # number of overall MSHR misses
system.l2.demand_mshr_miss_latency::.cpu.inst     35266501                       # number of demand (read+write) MSHR miss cycles
system.l2.demand_mshr_miss_latency::.cpu.data     54678500                       # number of demand (read+write) MSHR miss cycles
system.l2.demand_mshr_miss_latency::total     89945001                       # number of demand (read+write) MSHR miss cycles
system.l2.overall_mshr_miss_latency::.cpu.inst     35266501                       # number of overall MSHR miss cycles
system.l2.overall_mshr_miss_latency::.cpu.data     54678500                       # number of overall MSHR miss cycles
system.l2.overall_mshr_miss_latency::total     89945001                       # number of overall MSHR miss cycles
system.l2.demand_mshr_miss_rate::.cpu.inst     0.834967                       # mshr miss rate for demand accesses
system.l2.demand_mshr_miss_rate::.cpu.data     0.623539                       # mshr miss rate for demand accesses
system.l2.demand_mshr_miss_rate::total       0.668536                       # mshr miss rate for demand accesses
system.l2.overall_mshr_miss_rate::.cpu.inst     0.834967                       # mshr miss rate for overall accesses
system.l2.overall_mshr_miss_rate::.cpu.data     0.623539                       # mshr miss rate for overall accesses
system.l2.overall_mshr_miss_rate::total      0.668536                       # mshr miss rate for overall accesses
system.l2.demand_avg_mshr_miss_latency::.cpu.inst 69014.679061                       # average overall mshr miss latency
system.l2.demand_avg_mshr_miss_latency::.cpu.data 68348.125000                       # average overall mshr miss latency
system.l2.demand_avg_mshr_miss_latency::total 68607.933638                       # average overall mshr miss latency
system.l2.overall_avg_mshr_miss_latency::.cpu.inst 69014.679061                       # average overall mshr miss latency
system.l2.overall_avg_mshr_miss_latency::.cpu.data 68348.125000                       # average overall mshr miss latency
system.l2.overall_avg_mshr_miss_latency::total 68607.933638                       # average overall mshr miss latency
system.l2.replacements                              0                       # number of replacements
system.l2.WritebackDirty_hits::.writebacks          723                       # number of WritebackDirty hits
system.l2.WritebackDirty_hits::total              723                       # number of WritebackDirty hits
system.l2.WritebackDirty_accesses::.writebacks          723                       # number of WritebackDirty accesses(hits+misses)
system.l2.WritebackDirty_accesses::total          723                       # number of WritebackDirty accesses(hits+misses)
system.l2.WritebackClean_hits::.writebacks          429                       # number of WritebackClean hits
system.l2.WritebackClean_hits::total              429                       # number of WritebackClean hits
system.l2.WritebackClean_accesses::.writebacks          429                       # number of WritebackClean accesses(hits+misses)
system.l2.WritebackClean_accesses::total          429                       # number of WritebackClean accesses(hits+misses)
system.l2.ReadExReq_hits::.cpu.data               208                       # number of ReadExReq hits
system.l2.ReadExReq_hits::total                   208                       # number of ReadExReq hits
system.l2.ReadExReq_misses::.cpu.data             698                       # number of ReadExReq misses
system.l2.ReadExReq_misses::total                 698                       # number of ReadExReq misses
system.l2.ReadExReq_miss_latency::.cpu.data     53956500                       # number of ReadExReq miss cycles
system.l2.ReadExReq_miss_latency::total      53956500                       # number of ReadExReq miss cycles
system.l2.ReadExReq_accesses::.cpu.data           906                       # number of ReadExReq accesses(hits+misses)
system.l2.ReadExReq_accesses::total               906                       # number of ReadExReq accesses(hits+misses)
system.l2.ReadExReq_miss_rate::.cpu.data     0.770419                       # miss rate for ReadExReq accesses
system.l2.ReadExReq_miss_rate::total         0.770419                       # miss rate for ReadExReq accesses
system.l2.ReadExReq_avg_miss_latency::.cpu.data 77301.575931                       # average ReadExReq miss latency
system.l2.ReadExReq_avg_miss_latency::total 77301.575931                       # average ReadExReq miss latency
system.l2.ReadExReq_mshr_misses::.cpu.data          698                       # number of ReadExReq MSHR misses
system.l2.ReadExReq_mshr_misses::total            698                       # number of ReadExReq MSHR misses
system.l2.ReadExReq_mshr_miss_latency::.cpu.data     46976500                       # number of ReadExReq MSHR miss cycles
system.l2.ReadExReq_mshr_miss_latency::total     46976500                       # number of ReadExReq MSHR miss cycles
system.l2.ReadExReq_mshr_miss_rate::.cpu.data     0.770419                       # mshr miss rate for ReadExReq accesses
system.l2.ReadExReq_mshr_miss_rate::total     0.770419                       # mshr miss rate for ReadExReq accesses
system.l2.ReadExReq_avg_mshr_miss_latency::.cpu.data 67301.575931                       # average ReadExReq mshr miss latency
system.l2.ReadExReq_avg_mshr_miss_latency::total 67301.575931                       # average ReadExReq mshr miss latency
system.l2.ReadCleanReq_hits::.cpu.inst            101                       # number of ReadCleanReq hits
system.l2.ReadCleanReq_hits::.cpu.icache.prefetcher           66                       # number of ReadCleanReq hits
system.l2.ReadCleanReq_hits::total                167                       # number of ReadCleanReq hits
system.l2.ReadCleanReq_misses::.cpu.inst          511                       # number of ReadCleanReq misses
system.l2.ReadCleanReq_misses::total              511                       # number of ReadCleanReq misses
system.l2.ReadCleanReq_miss_latency::.cpu.inst     40377000                       # number of ReadCleanReq miss cycles
system.l2.ReadCleanReq_miss_latency::total     40377000                       # number of ReadCleanReq miss cycles
system.l2.ReadCleanReq_accesses::.cpu.inst          612                       # number of ReadCleanReq accesses(hits+misses)
system.l2.ReadCleanReq_accesses::.cpu.icache.prefetcher           66                       # number of ReadCleanReq accesses(hits+misses)
system.l2.ReadCleanReq_accesses::total            678                       # number of ReadCleanReq accesses(hits+misses)
[...]
system.cpu.icache.tags.data_accesses            86926                       # Number of data accesses
system.cpu.icache.tags.power_state.pwrStateResidencyTicks::UNDEFINED    150611500                       # Cumulative time (in ticks) in various power states
system.cpu.dtb.walker.power_state.pwrStateResidencyTicks::UNDEFINED    150611500                       # Cumulative time (in ticks) in various power states
system.cpu.dtb.stage2_mmu.stage2_tlb.walker.power_state.pwrStateResidencyTicks::UNDEFINED    150611500                       # Cumulative time (in ticks) in various power states
system.cpu.itb.walker.power_state.pwrStateResidencyTicks::UNDEFINED    150611500                       # Cumulative time (in ticks) in various power states
system.cpu.itb.stage2_mmu.stage2_tlb.walker.power_state.pwrStateResidencyTicks::UNDEFINED    150611500                       # Cumulative time (in ticks) in various power states
system.cpu.dcache.demand_hits::.cpu.data       358328                       # number of demand (read+write) hits
system.cpu.dcache.demand_hits::total           358328                       # number of demand (read+write) hits
system.cpu.dcache.overall_hits::.cpu.data       358351                       # number of overall hits
system.cpu.dcache.overall_hits::total          358351                       # number of overall hits
system.cpu.dcache.demand_misses::.cpu.data        11203                       # number of demand (read+write) misses
system.cpu.dcache.demand_misses::total          11203                       # number of demand (read+write) misses
system.cpu.dcache.overall_misses::.cpu.data        11205                       # number of overall misses
system.cpu.dcache.overall_misses::total         11205                       # number of overall misses
system.cpu.dcache.demand_miss_latency::.cpu.data    567072982                       # number of demand (read+write) miss cycles
system.cpu.dcache.demand_miss_latency::total    567072982                       # number of demand (read+write) miss cycles
system.cpu.dcache.overall_miss_latency::.cpu.data    567072982                       # number of overall miss cycles
system.cpu.dcache.overall_miss_latency::total    567072982                       # number of overall miss cycles
system.cpu.dcache.demand_accesses::.cpu.data       369531                       # number of demand (read+write) accesses
system.cpu.dcache.demand_accesses::total       369531                       # number of demand (read+write) accesses
system.cpu.dcache.overall_accesses::.cpu.data       369556                       # number of overall (read+write) accesses
system.cpu.dcache.overall_accesses::total       369556                       # number of overall (read+write) accesses
system.cpu.dcache.demand_miss_rate::.cpu.data     0.030317                       # miss rate for demand accesses
system.cpu.dcache.demand_miss_rate::total     0.030317                       # miss rate for demand accesses
system.cpu.dcache.overall_miss_rate::.cpu.data     0.030320                       # miss rate for overall accesses
system.cpu.dcache.overall_miss_rate::total     0.030320                       # miss rate for overall accesses
system.cpu.dcache.demand_avg_miss_latency::.cpu.data 50617.957868                       # average overall miss latency
system.cpu.dcache.demand_avg_miss_latency::total 50617.957868                       # average overall miss latency
system.cpu.dcache.overall_avg_miss_latency::.cpu.data 50608.922981                       # average overall miss latency
system.cpu.dcache.overall_avg_miss_latency::total 50608.922981                       # average overall miss latency
system.cpu.dcache.blocked_cycles::no_mshrs        12419                       # number of cycles access was blocked
system.cpu.dcache.blocked_cycles::no_targets            0                       # number of cycles access was blocked
system.cpu.dcache.blocked::no_mshrs               616                       # number of cycles access was blocked
system.cpu.dcache.blocked::no_targets               0                       # number of cycles access was blocked
system.cpu.dcache.avg_blocked_cycles::no_mshrs    20.160714                       # average number of cycles each access was blocked
system.cpu.dcache.avg_blocked_cycles::no_targets          nan                       # average number of cycles each access was blocked
system.cpu.dcache.writebacks::.writebacks          723                       # number of writebacks
system.cpu.dcache.writebacks::total               723                       # number of writebacks
system.cpu.dcache.demand_mshr_hits::.cpu.data         9376                       # number of demand (read+write) MSHR hits
system.cpu.dcache.demand_mshr_hits::total         9376                       # number of demand (read+write) MSHR hits
system.cpu.dcache.overall_mshr_hits::.cpu.data         9376                       # number of overall MSHR hits
system.cpu.dcache.overall_mshr_hits::total         9376                       # number of overall MSHR hits
system.cpu.dcache.demand_mshr_misses::.cpu.data         1827                       # number of demand (read+write) MSHR misses
system.cpu.dcache.demand_mshr_misses::total         1827                       # number of demand (read+write) MSHR misses
system.cpu.dcache.overall_mshr_misses::.cpu.data         1829                       # number of overall MSHR misses
system.cpu.dcache.overall_mshr_misses::total         1829                       # number of overall MSHR misses
system.cpu.dcache.demand_mshr_miss_latency::.cpu.data     86531554                       # number of demand (read+write) MSHR miss cycles
system.cpu.dcache.demand_mshr_miss_latency::total     86531554                       # number of demand (read+write) MSHR miss cycles
system.cpu.dcache.overall_mshr_miss_latency::.cpu.data     86694054                       # number of overall MSHR miss cycles
system.cpu.dcache.overall_mshr_miss_latency::total     86694054                       # number of overall MSHR miss cycles
system.cpu.dcache.demand_mshr_miss_rate::.cpu.data     0.004944                       # mshr miss rate for demand accesses
system.cpu.dcache.demand_mshr_miss_rate::total     0.004944                       # mshr miss rate for demand accesses
system.cpu.dcache.overall_mshr_miss_rate::.cpu.data     0.004949                       # mshr miss rate for overall accesses
system.cpu.dcache.overall_mshr_miss_rate::total     0.004949                       # mshr miss rate for overall accesses
system.cpu.dcache.demand_avg_mshr_miss_latency::.cpu.data 47362.645868                       # average overall mshr miss latency
system.cpu.dcache.demand_avg_mshr_miss_latency::total 47362.645868                       # average overall mshr miss latency
system.cpu.dcache.overall_avg_mshr_miss_latency::.cpu.data 47399.701476                       # average overall mshr miss latency
system.cpu.dcache.overall_avg_mshr_miss_latency::total 47399.701476                       # average overall mshr miss latency
system.cpu.dcache.replacements                    809                       # number of replacements
system.cpu.dcache.ReadReq_hits::.cpu.data       257188                       # number of ReadReq hits
system.cpu.dcache.ReadReq_hits::total          257188                       # number of ReadReq hits
system.cpu.dcache.ReadReq_misses::.cpu.data          661                       # number of ReadReq misses
system.cpu.dcache.ReadReq_misses::total           661                       # number of ReadReq misses
system.cpu.dcache.ReadReq_miss_latency::.cpu.data     21942500                       # number of ReadReq miss cycles
system.cpu.dcache.ReadReq_miss_latency::total     21942500                       # number of ReadReq miss cycles
system.cpu.dcache.ReadReq_accesses::.cpu.data       257849                       # number of ReadReq accesses(hits+misses)
system.cpu.dcache.ReadReq_accesses::total       257849                       # number of ReadReq accesses(hits+misses)
system.cpu.dcache.ReadReq_miss_rate::.cpu.data     0.002564                       # miss rate for ReadReq accesses
system.cpu.dcache.ReadReq_miss_rate::total     0.002564                       # miss rate for ReadReq accesses
system.cpu.dcache.ReadReq_avg_miss_latency::.cpu.data 33195.915280                       # average ReadReq miss latency
system.cpu.dcache.ReadReq_avg_miss_latency::total 33195.915280                       # average ReadReq miss latency
system.cpu.dcache.ReadReq_mshr_hits::.cpu.data          286                       # number of ReadReq MSHR hits
system.cpu.dcache.ReadReq_mshr_hits::total          286                       # number of ReadReq MSHR hits
system.cpu.dcache.ReadReq_mshr_misses::.cpu.data          375                       # number of ReadReq MSHR misses
system.cpu.dcache.ReadReq_mshr_misses::total          375                       # number of ReadReq MSHR misses
system.cpu.dcache.ReadReq_mshr_miss_latency::.cpu.data     12042000                       # number of ReadReq MSHR miss cycles
system.cpu.dcache.ReadReq_mshr_miss_latency::total     12042000                       # number of ReadReq MSHR miss cycles
system.cpu.dcache.ReadReq_mshr_miss_rate::.cpu.data     0.001454                       # mshr miss rate for ReadReq accesses
system.cpu.dcache.ReadReq_mshr_miss_rate::total     0.001454                       # mshr miss rate for ReadReq accesses
system.cpu.dcache.ReadReq_avg_mshr_miss_latency::.cpu.data        32112                       # average ReadReq mshr miss latency
system.cpu.dcache.ReadReq_avg_mshr_miss_latency::total        32112                       # average ReadReq mshr miss latency
system.cpu.dcache.WriteReq_hits::.cpu.data       101121                       # number of WriteReq hits
system.cpu.dcache.WriteReq_hits::total         101121                       # number of WriteReq hits
system.cpu.dcache.WriteReq_misses::.cpu.data         9997                       # number of WriteReq misses
system.cpu.dcache.WriteReq_misses::total         9997                       # number of WriteReq misses
system.cpu.dcache.WriteReq_miss_latency::.cpu.data    527655424                       # number of WriteReq miss cycles
system.cpu.dcache.WriteReq_miss_latency::total    527655424                       # number of WriteReq miss cycles
system.cpu.dcache.WriteReq_accesses::.cpu.data       111118                       # number of WriteReq accesses(hits+misses)
system.cpu.dcache.WriteReq_accesses::total       111118                       # number of WriteReq accesses(hits+misses)
system.cpu.dcache.WriteReq_miss_rate::.cpu.data     0.089967                       # miss rate for WriteReq accesses
system.cpu.dcache.WriteReq_miss_rate::total     0.089967                       # miss rate for WriteReq accesses
system.cpu.dcache.WriteReq_avg_miss_latency::.cpu.data 52781.376813                       # average WriteReq miss latency
system.cpu.dcache.WriteReq_avg_miss_latency::total 52781.376813                       # average WriteReq miss latency
system.cpu.dcache.WriteReq_mshr_hits::.cpu.data         9090                       # number of WriteReq MSHR hits
system.cpu.dcache.WriteReq_mshr_hits::total         9090                       # number of WriteReq MSHR hits
system.cpu.dcache.WriteReq_mshr_misses::.cpu.data          907                       # number of WriteReq MSHR misses
system.cpu.dcache.WriteReq_mshr_misses::total          907                       # number of WriteReq MSHR misses
system.cpu.dcache.WriteReq_mshr_miss_latency::.cpu.data     57559496                       # number of WriteReq MSHR miss cycles
system.cpu.dcache.WriteReq_mshr_miss_latency::total     57559496                       # number of WriteReq MSHR miss cycles
system.cpu.dcache.WriteReq_mshr_miss_rate::.cpu.data     0.008162                       # mshr miss rate for WriteReq accesses
system.cpu.dcache.WriteReq_mshr_miss_rate::total     0.008162                       # mshr miss rate for WriteReq accesses
system.cpu.dcache.WriteReq_avg_mshr_miss_latency::.cpu.data 63461.406836                       # average WriteReq mshr miss latency
system.cpu.dcache.WriteReq_avg_mshr_miss_latency::total 63461.406836                       # average WriteReq mshr miss latency
system.cpu.dcache.SoftPFReq_hits::.cpu.data           23                       # number of SoftPFReq hits
system.cpu.dcache.SoftPFReq_hits::total            23                       # number of SoftPFReq hits
system.cpu.dcache.SoftPFReq_misses::.cpu.data            2                       # number of SoftPFReq misses
system.cpu.dcache.SoftPFReq_misses::total            2                       # number of SoftPFReq misses
system.cpu.dcache.SoftPFReq_accesses::.cpu.data           25                       # number of SoftPFReq accesses(hits+misses)
system.cpu.dcache.SoftPFReq_accesses::total           25                       # number of SoftPFReq accesses(hits+misses)
system.cpu.dcache.SoftPFReq_miss_rate::.cpu.data     0.080000                       # miss rate for SoftPFReq accesses
system.cpu.dcache.SoftPFReq_miss_rate::total     0.080000                       # miss rate for SoftPFReq accesses
system.cpu.dcache.SoftPFReq_mshr_misses::.cpu.data            2                       # number of SoftPFReq MSHR misses
system.cpu.dcache.SoftPFReq_mshr_misses::total            2                       # number of SoftPFReq MSHR misses
system.cpu.dcache.SoftPFReq_mshr_miss_latency::.cpu.data       162500                       # number of SoftPFReq MSHR miss cycles
system.cpu.dcache.SoftPFReq_mshr_miss_latency::total       162500                       # number of SoftPFReq MSHR miss cycles
system.cpu.dcache.SoftPFReq_mshr_miss_rate::.cpu.data     0.080000                       # mshr miss rate for SoftPFReq accesses
system.cpu.dcache.SoftPFReq_mshr_miss_rate::total     0.080000                       # mshr miss rate for SoftPFReq accesses
system.cpu.dcache.SoftPFReq_avg_mshr_miss_latency::.cpu.data        81250                       # average SoftPFReq mshr miss latency
system.cpu.dcache.SoftPFReq_avg_mshr_miss_latency::total        81250                       # average SoftPFReq mshr miss latency
system.cpu.dcache.WriteLineReq_hits::.cpu.data           19                       # number of WriteLineReq hits
system.cpu.dcache.WriteLineReq_hits::total           19                       # number of WriteLineReq hits
system.cpu.dcache.WriteLineReq_misses::.cpu.data          545                       # number of WriteLineReq misses
system.cpu.dcache.WriteLineReq_misses::total          545                       # number of WriteLineReq misses
system.cpu.dcache.WriteLineReq_miss_latency::.cpu.data     17475058                       # number of WriteLineReq miss cycles
system.cpu.dcache.WriteLineReq_miss_latency::total     17475058                       # number of WriteLineReq miss cycles
system.cpu.dcache.WriteLineReq_accesses::.cpu.data          564                       # number of WriteLineReq accesses(hits+misses)
system.cpu.dcache.WriteLineReq_accesses::total          564                       # number of WriteLineReq accesses(hits+misses)
system.cpu.dcache.WriteLineReq_miss_rate::.cpu.data     0.966312                       # miss rate for WriteLineReq accesses
system.cpu.dcache.WriteLineReq_miss_rate::total     0.966312                       # miss rate for WriteLineReq accesses
system.cpu.dcache.WriteLineReq_avg_miss_latency::.cpu.data 32064.326606                       # average WriteLineReq miss latency
system.cpu.dcache.WriteLineReq_avg_miss_latency::total 32064.326606                       # average WriteLineReq miss latency
system.cpu.dcache.WriteLineReq_mshr_misses::.cpu.data          545                       # number of WriteLineReq MSHR misses
system.cpu.dcache.WriteLineReq_mshr_misses::total          545                       # number of WriteLineReq MSHR misses
system.cpu.dcache.WriteLineReq_mshr_miss_latency::.cpu.data     16930058                       # number of WriteLineReq MSHR miss cycles
system.cpu.dcache.WriteLineReq_mshr_miss_latency::total     16930058                       # number of WriteLineReq MSHR miss cycles
system.cpu.dcache.WriteLineReq_mshr_miss_rate::.cpu.data     0.966312                       # mshr miss rate for WriteLineReq accesses
system.cpu.dcache.WriteLineReq_mshr_miss_rate::total     0.966312                       # mshr miss rate for WriteLineReq accesses
system.cpu.dcache.WriteLineReq_avg_mshr_miss_latency::.cpu.data 31064.326606                       # average WriteLineReq mshr miss latency
system.cpu.dcache.WriteLineReq_avg_mshr_miss_latency::total 31064.326606                       # average WriteLineReq mshr miss latency
system.cpu.dcache.LoadLockedReq_hits::.cpu.data           55                       # number of LoadLockedReq hits
system.cpu.dcache.LoadLockedReq_hits::total           55                       # number of LoadLockedReq hits
system.cpu.dcache.LoadLockedReq_accesses::.cpu.data           55                       # number of LoadLockedReq accesses(hits+misses)
system.cpu.dcache.LoadLockedReq_accesses::total           55                       # number of LoadLockedReq accesses(hits+misses)
system.cpu.dcache.StoreCondReq_hits::.cpu.data           48                       # number of StoreCondReq hits
system.cpu.dcache.StoreCondReq_hits::total           48                       # number of StoreCondReq hits
system.cpu.dcache.StoreCondReq_accesses::.cpu.data           48                       # number of StoreCondReq accesses(hits+misses)
system.cpu.dcache.StoreCondReq_accesses::total           48                       # number of StoreCondReq accesses(hits+misses)
system.cpu.dcache.power_state.pwrStateResidencyTicks::UNDEFINED    150611500                       # Cumulative time (in ticks) in various power states
system.cpu.dcache.tags.tagsinuse           693.006974                       # Cycle average of tags in use
system.cpu.dcache.tags.total_refs              360283                       # Total number of references to valid blocks.
system.cpu.dcache.tags.sampled_refs              1829                       # Sample count of references to valid blocks.
system.cpu.dcache.tags.avg_refs            196.983598                       # Average number of references to valid blocks.
system.cpu.dcache.tags.warmup_cycle            176500                       # Cycle when the warmup percentage was hit.
system.cpu.dcache.tags.occ_blocks::.cpu.data   693.006974                       # Average occupied blocks per requestor
system.cpu.dcache.tags.occ_percent::.cpu.data     0.676765                       # Average percentage of cache occupancy
system.cpu.dcache.tags.occ_percent::total     0.676765                       # Average percentage of cache occupancy
system.cpu.dcache.tags.occ_task_id_blocks::1024         1020                       # Occupied blocks per task id
system.cpu.dcache.tags.age_task_id_blocks_1024::0           63                       # Occupied blocks per task id
system.cpu.dcache.tags.age_task_id_blocks_1024::1          540                       # Occupied blocks per task id
system.cpu.dcache.tags.age_task_id_blocks_1024::2          417                       # Occupied blocks per task id
system.cpu.dcache.tags.occ_task_id_percent::1024     0.996094                       # Percentage of cache occupancy per task id
system.cpu.dcache.tags.tag_accesses            741147                       # Number of tag accesses
system.cpu.dcache.tags.data_accesses           741147                       # Number of data accesses
system.cpu.dcache.tags.power_state.pwrStateResidencyTicks::UNDEFINED    150611500                       # Cumulative time (in ticks) in various power states
system.cpu.power_state.pwrStateResidencyTicks::ON    150611500                       # Cumulative time (in ticks) in various power states

---------- End Simulation Statistics   ----------
