
---------- Begin Simulation Statistics ----------
final_tick                                 9302987500                       # Number of ticks from beginning of simulation (restored from checkpoints and never reset)
host_inst_rate                                 149871                       # Simulator instruction rate (inst/s)
host_mem_usage                                 868340                       # Number of bytes of host memory used
host_op_rate                                   149927                       # Simulator op (including micro ops) rate (op/s)
host_seconds                                    66.72                       # Real time elapsed on the host
host_tick_rate                              139424890                       # Simulator tick rate (ticks/s)
sim_freq                                 1000000000000                       # Frequency of simulated ticks
sim_insts                                    10000000                       # Number of instructions simulated
sim_ops                                      10003754                       # Number of ops (including micro ops) simulated
sim_seconds                                  0.009303                       # Number of seconds simulated
sim_ticks                                  9302987500                       # Number of ticks simulated
system.cpu.branchPred.BTBCorrect                    0                       # Number of correct BTB predictions (this stat may not work properly.
system.cpu.branchPred.BTBHitPct             99.955669                       # BTB Hit Percentage
system.cpu.branchPred.BTBHits                 1596363                       # Number of BTB hits
system.cpu.branchPred.BTBLookups              1597071                       # Number of BTB lookups
system.cpu.branchPred.RASInCorrect                  1                       # Number of incorrect RAS predictions.
system.cpu.branchPred.condIncorrect               882                       # Number of conditional branches incorrect
system.cpu.branchPred.condPredicted           1598415                       # Number of conditional branches predicted
system.cpu.branchPred.indirectHits                  0                       # Number of indirect target hits.
system.cpu.branchPred.indirectLookups             139                       # Number of indirect predictor lookups.
system.cpu.branchPred.indirectMisses              139                       # Number of indirect misses.
system.cpu.branchPred.lookups                 1606875                       # Number of BP lookups
system.cpu.branchPred.usedRAS                    2766                       # Number of times the RAS was used to get a target.
system.cpu.branchPredindirectMispredicted           42                       # Number of mispredicted indirect branches.
system.cpu.cc_regfile_reads                   4675908                       # number of cc regfile reads
system.cpu.cc_regfile_writes                  4676184                       # number of cc regfile writes
system.cpu.commit.amos                              0                       # Number of atomic instructions committed
system.cpu.commit.branchMispredicts               685                       # The number of times a branch was mispredicted
system.cpu.commit.branches                    1479051                       # Number of branches committed
system.cpu.commit.bw_lim_events                769951                       # number cycles where commit BW limit reached
system.cpu.commit.commitNonSpecStalls              26                       # The number of times commit has been forced to stall to communicate backwards
system.cpu.commit.commitSquashedInsts          615039                       # The number of squashed insts skipped by commit
system.cpu.commit.committedInsts             10000211                       # Number of instructions committed
system.cpu.commit.committedOps               10003965                       # Number of ops (including micro ops) committed
system.cpu.commit.committed_per_cycle::samples     18495706                       # Number of insts commited each cycle
system.cpu.commit.committed_per_cycle::mean     0.540880                       # Number of insts commited each cycle
system.cpu.commit.committed_per_cycle::stdev     1.840600                       # Number of insts commited each cycle
system.cpu.commit.committed_per_cycle::underflows            0      0.00%      0.00% # Number of insts commited each cycle
system.cpu.commit.committed_per_cycle::0     16663388     90.09%     90.09% # Number of insts commited each cycle
system.cpu.commit.committed_per_cycle::1       287183      1.55%     91.65% # Number of insts commited each cycle
system.cpu.commit.committed_per_cycle::2       153309      0.83%     92.47% # Number of insts commited each cycle
system.cpu.commit.committed_per_cycle::3       119370      0.65%     93.12% # Number of insts commited each cycle
system.cpu.commit.committed_per_cycle::4        30302      0.16%     93.28% # Number of insts commited each cycle
system.cpu.commit.committed_per_cycle::5        70430      0.38%     93.66% # Number of insts commited each cycle
system.cpu.commit.committed_per_cycle::6       393323      2.13%     95.79% # Number of insts commited each cycle
system.cpu.commit.committed_per_cycle::7         8450      0.05%     95.84% # Number of insts commited each cycle
system.cpu.commit.committed_per_cycle::8       769951      4.16%    100.00% # Number of insts commited each cycle
system.cpu.commit.committed_per_cycle::overflows            0      0.00%    100.00% # Number of insts commited each cycle
system.cpu.commit.committed_per_cycle::min_value            0                       # Number of insts commited each cycle
system.cpu.commit.committed_per_cycle::max_value            8                       # Number of insts commited each cycle
system.cpu.commit.committed_per_cycle::total     18495706                       # Number of insts commited each cycle
system.cpu.commit.fp_insts                          0                       # Number of committed floating point instructions.
system.cpu.commit.function_calls                 2417                       # Number of function calls committed.
system.cpu.commit.int_insts                   8532197                       # Number of committed integer instructions.
system.cpu.commit.loads                       2926491                       # Number of loads committed
system.cpu.commit.membars                          16                       # Number of memory barriers committed
system.cpu.commit.op_class_0::No_OpClass            4      0.00%      0.00% # Class of committed instruction
system.cpu.commit.op_class_0::IntAlu          5610049     56.08%     56.08% # Class of committed instruction
system.cpu.commit.op_class_0::IntMult             449      0.00%     56.08% # Class of committed instruction
system.cpu.commit.op_class_0::IntDiv                2      0.00%     56.08% # Class of committed instruction
system.cpu.commit.op_class_0::FloatAdd              0      0.00%     56.08% # Class of committed instruction
system.cpu.commit.op_class_0::FloatCmp              0      0.00%     56.08% # Class of committed instruction
system.cpu.commit.op_class_0::FloatCvt              0      0.00%     56.08% # Class of committed instruction
system.cpu.commit.op_class_0::FloatMult             0      0.00%     56.08% # Class of committed instruction
system.cpu.commit.op_class_0::FloatMultAcc            0      0.00%     56.08% # Class of committed instruction
system.cpu.commit.op_class_0::FloatDiv              0      0.00%     56.08% # Class of committed instruction
system.cpu.commit.op_class_0::FloatMisc             1      0.00%     56.08% # Class of committed instruction
system.cpu.commit.op_class_0::FloatSqrt             0      0.00%     56.08% # Class of committed instruction
system.cpu.commit.op_class_0::SimdAdd              19      0.00%     56.08% # Class of committed instruction
system.cpu.commit.op_class_0::SimdAddAcc            0      0.00%     56.08% # Class of committed instruction
system.cpu.commit.op_class_0::SimdAlu              12      0.00%     56.08% # Class of committed instruction
system.cpu.commit.op_class_0::SimdCmp              16      0.00%     56.08% # Class of committed instruction
system.cpu.commit.op_class_0::SimdCvt               0      0.00%     56.08% # Class of committed instruction
system.cpu.commit.op_class_0::SimdMisc             16      0.00%     56.08% # Class of committed instruction
system.cpu.commit.op_class_0::SimdMult              0      0.00%     56.08% # Class of committed instruction
system.cpu.commit.op_class_0::SimdMultAcc            0      0.00%     56.08% # Class of committed instruction
system.cpu.commit.op_class_0::SimdShift             0      0.00%     56.08% # Class of committed instruction
system.cpu.commit.op_class_0::SimdShiftAcc            0      0.00%     56.08% # Class of committed instruction
system.cpu.commit.op_class_0::SimdDiv               0      0.00%     56.08% # Class of committed instruction
system.cpu.commit.op_class_0::SimdSqrt              0      0.00%     56.08% # Class of committed instruction
system.cpu.commit.op_class_0::SimdFloatAdd            0      0.00%     56.08% # Class of committed instruction
system.cpu.commit.op_class_0::SimdFloatAlu            0      0.00%     56.08% # Class of committed instruction
system.cpu.commit.op_class_0::SimdFloatCmp            0      0.00%     56.08% # Class of committed instruction
system.cpu.commit.op_class_0::SimdFloatCvt            0      0.00%     56.08% # Class of committed instruction
system.cpu.commit.op_class_0::SimdFloatDiv            0      0.00%     56.08% # Class of committed instruction
system.cpu.commit.op_class_0::SimdFloatMisc            0      0.00%     56.08% # Class of committed instruction
system.cpu.commit.op_class_0::SimdFloatMult            0      0.00%     56.08% # Class of committed instruction
system.cpu.commit.op_class_0::SimdFloatMultAcc            0      0.00%     56.08% # Class of committed instruction
system.cpu.commit.op_class_0::SimdFloatSqrt            0      0.00%     56.08% # Class of committed instruction
system.cpu.commit.op_class_0::SimdReduceAdd            0      0.00%     56.08% # Class of committed instruction
system.cpu.commit.op_class_0::SimdReduceAlu            0      0.00%     56.08% # Class of committed instruction
system.cpu.commit.op_class_0::SimdReduceCmp            0      0.00%     56.08% # Class of committed instruction
system.cpu.commit.op_class_0::SimdFloatReduceAdd            0      0.00%     56.08% # Class of committed instruction
system.cpu.commit.op_class_0::SimdFloatReduceCmp            0      0.00%     56.08% # Class of committed instruction
system.cpu.commit.op_class_0::SimdAes               0      0.00%     56.08% # Class of committed instruction
system.cpu.commit.op_class_0::SimdAesMix            0      0.00%     56.08% # Class of committed instruction
system.cpu.commit.op_class_0::SimdSha1Hash            0      0.00%     56.08% # Class of committed instruction
system.cpu.commit.op_class_0::SimdSha1Hash2            0      0.00%     56.08% # Class of committed instruction
system.cpu.commit.op_class_0::SimdSha256Hash            0      0.00%     56.08% # Class of committed instruction
system.cpu.commit.op_class_0::SimdSha256Hash2            0      0.00%     56.08% # Class of committed instruction
system.cpu.commit.op_class_0::SimdShaSigma2            0      0.00%     56.08% # Class of committed instruction
system.cpu.commit.op_class_0::SimdShaSigma3            0      0.00%     56.08% # Class of committed instruction
system.cpu.commit.op_class_0::SimdPredAlu            0      0.00%     56.08% # Class of committed instruction
system.cpu.commit.op_class_0::MemRead         2926491     29.25%     85.34% # Class of committed instruction
system.cpu.commit.op_class_0::MemWrite        1466906     14.66%    100.00% # Class of committed instruction
system.cpu.commit.op_class_0::FloatMemRead            0      0.00%    100.00% # Class of committed instruction
system.cpu.commit.op_class_0::FloatMemWrite            0      0.00%    100.00% # Class of committed instruction
system.cpu.commit.op_class_0::IprAccess             0      0.00%    100.00% # Class of committed instruction
system.cpu.commit.op_class_0::InstPrefetch            0      0.00%    100.00% # Class of committed instruction
system.cpu.commit.op_class_0::total          10003965                       # Class of committed instruction
system.cpu.commit.refs                        4393397                       # Number of memory references committed
system.cpu.commit.swp_count                         0                       # Number of s/w prefetches committed
system.cpu.commit.vec_insts                       248                       # Number of committed Vector instructions.
system.cpu.committedInsts                    10000000                       # Number of Instructions Simulated
system.cpu.committedOps                      10003754                       # Number of Ops (including micro ops) Simulated
system.cpu.cpi                               1.860598                       # CPI: Cycles Per Instruction
system.cpu.cpi_total                         1.860598                       # CPI: Total CPI of All Threads
system.cpu.decode.BlockedCycles              16490822                       # Number of cycles decode is blocked
system.cpu.decode.BranchMispred                   203                       # Number of times decode detected a branch misprediction
system.cpu.decode.BranchResolved              1564539                       # Number of times decode resolved a branch
system.cpu.decode.DecodedInsts               10678300                       # Number of instructions handled by decode
system.cpu.decode.IdleCycles                   520898                       # Number of cycles decode is idle
system.cpu.decode.RunCycles                   1283657                       # Number of cycles decode is running
system.cpu.decode.SquashCycles                   5807                       # Number of cycles decode is squashing
system.cpu.decode.SquashedInsts                   675                       # Number of squashed instructions handled by decode
system.cpu.decode.UnblockCycles                274207                       # Number of cycles decode is unblocking
system.cpu.dtb.accesses                             0                       # DTB accesses
system.cpu.dtb.align_faults                         0                       # Number of TLB faults due to alignment restrictions
system.cpu.dtb.domain_faults                        0                       # Number of TLB faults due to domain restrictions
system.cpu.dtb.flush_entries                        0                       # Number of entries that have been flushed from TLB
system.cpu.dtb.flush_tlb                            0                       # Number of times complete TLB was flushed
system.cpu.dtb.flush_tlb_asid                       0                       # Number of times TLB was flushed by ASID
system.cpu.dtb.flush_tlb_mva                        0                       # Number of times TLB was flushed by MVA
system.cpu.dtb.flush_tlb_mva_asid                   0                       # Number of times TLB was flushed by MVA & ASID
system.cpu.dtb.hits                                 0                       # DTB hits
system.cpu.dtb.inst_accesses                        0                       # ITB inst accesses
system.cpu.dtb.inst_hits                            0                       # ITB inst hits
system.cpu.dtb.inst_misses                          0                       # ITB inst misses
system.cpu.dtb.misses                               0                       # DTB misses
system.cpu.dtb.perms_faults                         0                       # Number of TLB faults due to permissions restrictions
system.cpu.dtb.prefetch_faults                      0                       # Number of TLB faults due to prefetch
system.cpu.dtb.read_accesses                        0                       # DTB read accesses
system.cpu.dtb.read_hits                            0                       # DTB read hits
system.cpu.dtb.read_misses                          0                       # DTB read misses
system.cpu.dtb.stage2_mmu.stage2_tlb.accesses            0                       # DTB accesses
system.cpu.dtb.stage2_mmu.stage2_tlb.align_faults            0                       # Number of TLB faults due to alignment restrictions
system.cpu.dtb.stage2_mmu.stage2_tlb.domain_faults            0                       # Number of TLB faults due to domain restrictions
system.cpu.dtb.stage2_mmu.stage2_tlb.flush_entries            0                       # Number of entries that have been flushed from TLB
system.cpu.dtb.stage2_mmu.stage2_tlb.flush_tlb            0                       # Number of times complete TLB was flushed
system.cpu.dtb.stage2_mmu.stage2_tlb.flush_tlb_asid            0                       # Number of times TLB was flushed by ASID
system.cpu.dtb.stage2_mmu.stage2_tlb.flush_tlb_mva            0                       # Number of times TLB was flushed by MVA
system.cpu.dtb.stage2_mmu.stage2_tlb.flush_tlb_mva_asid            0                       # Number of times TLB was flushed by MVA & ASID
system.cpu.dtb.stage2_mmu.stage2_tlb.hits            0                       # DTB hits
system.cpu.dtb.stage2_mmu.stage2_tlb.inst_accesses            0                       # ITB inst accesses
system.cpu.dtb.stage2_mmu.stage2_tlb.inst_hits            0                       # ITB inst hits
system.cpu.dtb.stage2_mmu.stage2_tlb.inst_misses            0                       # ITB inst misses
system.cpu.dtb.stage2_mmu.stage2_tlb.misses            0                       # DTB misses
system.cpu.dtb.stage2_mmu.stage2_tlb.perms_faults            0                       # Number of TLB faults due to permissions restrictions
system.cpu.dtb.stage2_mmu.stage2_tlb.prefetch_faults            0                       # Number of TLB faults due to prefetch
system.cpu.dtb.stage2_mmu.stage2_tlb.read_accesses            0                       # DTB read accesses
system.cpu.dtb.stage2_mmu.stage2_tlb.read_hits            0                       # DTB read hits
system.cpu.dtb.stage2_mmu.stage2_tlb.read_misses            0                       # DTB read misses
system.cpu.dtb.stage2_mmu.stage2_tlb.walker.walkRequestOrigin_Requested::Data            0                       # Table walker requests started/completed, data/inst
system.cpu.dtb.stage2_mmu.stage2_tlb.walker.walkRequestOrigin_Requested::Inst            0                       # Table walker requests started/completed, data/inst
system.cpu.dtb.stage2_mmu.stage2_tlb.walker.walkRequestOrigin_Requested::total            0                       # Table walker requests started/completed, data/inst
system.cpu.dtb.stage2_mmu.stage2_tlb.walker.walkRequestOrigin_Completed::Data            0                       # Table walker requests started/completed, data/inst
system.cpu.dtb.stage2_mmu.stage2_tlb.walker.walkRequestOrigin_Completed::Inst            0                       # Table walker requests started/completed, data/inst
system.cpu.dtb.stage2_mmu.stage2_tlb.walker.walkRequestOrigin_Completed::total            0                       # Table walker requests started/completed, data/inst
system.cpu.dtb.stage2_mmu.stage2_tlb.walker.walkRequestOrigin::total            0                       # Table walker requests started/completed, data/inst
system.cpu.dtb.stage2_mmu.stage2_tlb.walker.walks            0                       # Table walker walks requested
system.cpu.dtb.stage2_mmu.stage2_tlb.write_accesses            0                       # DTB write accesses
system.cpu.dtb.stage2_mmu.stage2_tlb.write_hits            0                       # DTB write hits
system.cpu.dtb.stage2_mmu.stage2_tlb.write_misses            0                       # DTB write misses
system.cpu.dtb.walker.walkRequestOrigin_Requested::Data            0                       # Table walker requests started/completed, data/inst
system.cpu.dtb.walker.walkRequestOrigin_Requested::Inst            0                       # Table walker requests started/completed, data/inst
system.cpu.dtb.walker.walkRequestOrigin_Requested::total            0                       # Table walker requests started/completed, data/inst
system.cpu.dtb.walker.walkRequestOrigin_Completed::Data            0                       # Table walker requests started/completed, data/inst
system.cpu.dtb.walker.walkRequestOrigin_Completed::Inst            0                       # Table walker requests started/completed, data/inst
system.cpu.dtb.walker.walkRequestOrigin_Completed::total            0                       # Table walker requests started/completed, data/inst
system.cpu.dtb.walker.walkRequestOrigin::total            0                       # Table walker requests started/completed, data/inst
system.cpu.dtb.walker.walks                         0                       # Table walker walks requested
system.cpu.dtb.write_accesses                       0                       # DTB write accesses
system.cpu.dtb.write_hits                           0                       # DTB write hits
system.cpu.dtb.write_misses                         0                       # DTB write misses
system.cpu.fetch.Branches                     1606875                       # Number of branches that fetch encountered
system.cpu.fetch.CacheLines                    685711                       # Number of cache lines fetched
system.cpu.fetch.Cycles                      17873817                       # Number of cycles fetch has run and was not squashing or blocked
system.cpu.fetch.IcacheSquashes                   400                       # Number of outstanding Icache misses that were squashed
system.cpu.fetch.IcacheWaitRetryStallCycles           22                       # Number of stall cycles due to full MSHR
system.cpu.fetch.Insts                       10893928                       # Number of instructions fetch has processed
system.cpu.fetch.MiscStallCycles                    2                       # Number of cycles fetch has spent waiting on interrupts, or bad addresses, or out of MSHRs
system.cpu.fetch.SquashCycles                   12008                       # Number of cycles fetch has spent squashing
system.cpu.fetch.branchRate                  0.086363                       # Number of branch fetches per cycle
system.cpu.fetch.icacheStallCycles             695546                       # Number of cycles fetch is stalled on an Icache miss
system.cpu.fetch.predictedBranches            1599129                       # Number of branches that fetch has predicted taken
system.cpu.fetch.rate                        0.585507                       # Number of inst fetches per cycle
system.cpu.fetch.rateDist::samples           18575391                       # Number of instructions fetched each cycle (Total)
system.cpu.fetch.rateDist::mean              0.586776                       # Number of instructions fetched each cycle (Total)
system.cpu.fetch.rateDist::stdev             1.733638                       # Number of instructions fetched each cycle (Total)
system.cpu.fetch.rateDist::underflows               0      0.00%      0.00% # Number of instructions fetched each cycle (Total)
system.cpu.fetch.rateDist::0                 16518045     88.92%     88.92% # Number of instructions fetched each cycle (Total)
system.cpu.fetch.rateDist::1                     4431      0.02%     88.95% # Number of instructions fetched each cycle (Total)
system.cpu.fetch.rateDist::2                    80120      0.43%     89.38% # Number of instructions fetched each cycle (Total)
system.cpu.fetch.rateDist::3                    36506      0.20%     89.58% # Number of instructions fetched each cycle (Total)
system.cpu.fetch.rateDist::4                   790279      4.25%     93.83% # Number of instructions fetched each cycle (Total)
system.cpu.fetch.rateDist::5                     3390      0.02%     93.85% # Number of instructions fetched each cycle (Total)
system.cpu.fetch.rateDist::6                   559001      3.01%     96.86% # Number of instructions fetched each cycle (Total)
system.cpu.fetch.rateDist::7                   575623      3.10%     99.96% # Number of instructions fetched each cycle (Total)
system.cpu.fetch.rateDist::8                     7996      0.04%    100.00% # Number of instructions fetched each cycle (Total)
system.cpu.fetch.rateDist::overflows                0      0.00%    100.00% # Number of instructions fetched each cycle (Total)
system.cpu.fetch.rateDist::min_value                0                       # Number of instructions fetched each cycle (Total)
system.cpu.fetch.rateDist::max_value                8                       # Number of instructions fetched each cycle (Total)
system.cpu.fetch.rateDist::total             18575391                       # Number of instructions fetched each cycle (Total)
system.cpu.idleCycles                           30585                       # Total number of cycles that the CPU has spent unscheduled due to idling
system.cpu.iew.branchMispredicts                  759                       # Number of branch mispredicts detected at execute
system.cpu.iew.exec_branches                  1566865                       # Number of branches executed
system.cpu.iew.exec_nop                           239                       # number of nop insts executed
system.cpu.iew.exec_rate                     0.795084                       # Inst execution rate
system.cpu.iew.exec_refs                      8831090                       # number of memory reference insts executed
system.cpu.iew.exec_stores                    1554112                       # Number of stores executed
system.cpu.iew.exec_swp                             0                       # number of swp insts executed
system.cpu.iew.iewBlockCycles                12041948                       # Number of cycles IEW is blocking
system.cpu.iew.iewDispLoadInsts               3096247                       # Number of dispatched load instructions
system.cpu.iew.iewDispNonSpecInsts                 34                       # Number of dispatched non-speculative instructions
system.cpu.iew.iewDispSquashedInsts               110                       # Number of squashed instructions skipped by dispatch
system.cpu.iew.iewDispStoreInsts              1554775                       # Number of dispatched store instructions
system.cpu.iew.iewDispatchedInsts            10616656                       # Number of instructions dispatched to IQ
system.cpu.iew.iewExecLoadInsts               7276978                       # Number of load instructions executed
system.cpu.iew.iewExecSquashedInsts               981                       # Number of squashed instructions skipped in execute
system.cpu.iew.iewExecutedInsts              14793317                       # Number of executed instructions
system.cpu.iew.iewIQFullEvents                  22982                       # Number of times the IQ has become full, causing a stall
system.cpu.iew.iewIdleCycles                        0                       # Number of cycles IEW is idle
system.cpu.iew.iewLSQFullEvents                100238                       # Number of times the LSQ has become full, causing a stall
system.cpu.iew.iewSquashCycles                   5807                       # Number of cycles IEW is squashing
system.cpu.iew.iewUnblockCycles                158353                       # Number of cycles IEW is unblocking
system.cpu.iew.lsq.thread0.blockedLoads             0                       # Number of blocked loads due to partial load-store forwarding
system.cpu.iew.lsq.thread0.cacheBlocked        218480                       # Number of times an access to memory failed due to the cache being blocked
system.cpu.iew.lsq.thread0.forwLoads              731                       # Number of loads that had data forwarded from stores
system.cpu.iew.lsq.thread0.ignoredResponses            2                       # Number of memory responses ignored because the instruction is squashed
system.cpu.iew.lsq.thread0.invAddrLoads             0                       # Number of loads ignored due to an invalid address
system.cpu.iew.lsq.thread0.invAddrSwpfs             0                       # Number of software prefetches ignored due to an invalid address
system.cpu.iew.lsq.thread0.memOrderViolation           14                       # Number of memory ordering violations
system.cpu.iew.lsq.thread0.rescheduledLoads           25                       # Number of loads that were rescheduled
system.cpu.iew.lsq.thread0.squashedLoads       169748                       # Number of loads squashed
system.cpu.iew.lsq.thread0.squashedStores        87865                       # Number of stores squashed
system.cpu.iew.memOrderViolationEvents             14                       # Number of memory order violations
system.cpu.iew.predictedNotTakenIncorrect          573                       # Number of branches that were predicted not taken incorrectly
system.cpu.iew.predictedTakenIncorrect            186                       # Number of branches that were predicted taken incorrectly
system.cpu.iew.wb_consumers                  12323628                       # num instructions consuming a value
system.cpu.iew.wb_count                      10524690                       # cumulative count of insts written-back
system.cpu.iew.wb_fanout                     0.568552                       # average fanout of values written-back
system.cpu.iew.wb_producers                   7006628                       # num instructions producing a value
system.cpu.iew.wb_rate                       0.565662                       # insts written-back per cycle
system.cpu.iew.wb_sent                       10611693                       # cumulative count of insts sent to commit
system.cpu.int_regfile_reads                 17887905                       # number of integer regfile reads
system.cpu.int_regfile_writes                 7493201                       # number of integer regfile writes
system.cpu.ipc                               0.537462                       # IPC: Instructions Per Cycle
system.cpu.ipc_total                         0.537462                       # IPC: Total IPC of All Threads
system.cpu.iq.FU_type_0::No_OpClass                 5      0.00%      0.00% # Type of FU issued
system.cpu.iq.FU_type_0::IntAlu               5962225     40.30%     40.30% # Type of FU issued
system.cpu.iq.FU_type_0::IntMult                  508      0.00%     40.30% # Type of FU issued
system.cpu.iq.FU_type_0::IntDiv                     2      0.00%     40.30% # Type of FU issued
system.cpu.iq.FU_type_0::FloatAdd                   0      0.00%     40.30% # Type of FU issued
system.cpu.iq.FU_type_0::FloatCmp                   0      0.00%     40.30% # Type of FU issued
system.cpu.iq.FU_type_0::FloatCvt                   0      0.00%     40.30% # Type of FU issued
system.cpu.iq.FU_type_0::FloatMult                  0      0.00%     40.30% # Type of FU issued
system.cpu.iq.FU_type_0::FloatMultAcc               0      0.00%     40.30% # Type of FU issued
system.cpu.iq.FU_type_0::FloatDiv                   0      0.00%     40.30% # Type of FU issued
system.cpu.iq.FU_type_0::FloatMisc                  1      0.00%     40.30% # Type of FU issued
system.cpu.iq.FU_type_0::FloatSqrt                  0      0.00%     40.30% # Type of FU issued
system.cpu.iq.FU_type_0::SimdAdd                   25      0.00%     40.30% # Type of FU issued
system.cpu.iq.FU_type_0::SimdAddAcc                 0      0.00%     40.30% # Type of FU issued
system.cpu.iq.FU_type_0::SimdAlu                   16      0.00%     40.30% # Type of FU issued
system.cpu.iq.FU_type_0::SimdCmp                   20      0.00%     40.30% # Type of FU issued
system.cpu.iq.FU_type_0::SimdCvt                    0      0.00%     40.30% # Type of FU issued
system.cpu.iq.FU_type_0::SimdMisc                  18      0.00%     40.30% # Type of FU issued
system.cpu.iq.FU_type_0::SimdMult                   0      0.00%     40.30% # Type of FU issued
system.cpu.iq.FU_type_0::SimdMultAcc                0      0.00%     40.30% # Type of FU issued
system.cpu.iq.FU_type_0::SimdShift                  0      0.00%     40.30% # Type of FU issued
system.cpu.iq.FU_type_0::SimdShiftAcc               0      0.00%     40.30% # Type of FU issued
system.cpu.iq.FU_type_0::SimdDiv                    0      0.00%     40.30% # Type of FU issued
system.cpu.iq.FU_type_0::SimdSqrt                   0      0.00%     40.30% # Type of FU issued
system.cpu.iq.FU_type_0::SimdFloatAdd               0      0.00%     40.30% # Type of FU issued
system.cpu.iq.FU_type_0::SimdFloatAlu               0      0.00%     40.30% # Type of FU issued
system.cpu.iq.FU_type_0::SimdFloatCmp               0      0.00%     40.30% # Type of FU issued
system.cpu.iq.FU_type_0::SimdFloatCvt               0      0.00%     40.30% # Type of FU issued
system.cpu.iq.FU_type_0::SimdFloatDiv               0      0.00%     40.30% # Type of FU issued
system.cpu.iq.FU_type_0::SimdFloatMisc              0      0.00%     40.30% # Type of FU issued
system.cpu.iq.FU_type_0::SimdFloatMult              0      0.00%     40.30% # Type of FU issued
system.cpu.iq.FU_type_0::SimdFloatMultAcc            0      0.00%     40.30% # Type of FU issued
system.cpu.iq.FU_type_0::SimdFloatSqrt              0      0.00%     40.30% # Type of FU issued
system.cpu.iq.FU_type_0::SimdReduceAdd              0      0.00%     40.30% # Type of FU issued
system.cpu.iq.FU_type_0::SimdReduceAlu              0      0.00%     40.30% # Type of FU issued
system.cpu.iq.FU_type_0::SimdReduceCmp              0      0.00%     40.30% # Type of FU issued
system.cpu.iq.FU_type_0::SimdFloatReduceAdd            0      0.00%     40.30% # Type of FU issued
system.cpu.iq.FU_type_0::SimdFloatReduceCmp            0      0.00%     40.30% # Type of FU issued
system.cpu.iq.FU_type_0::SimdAes                    0      0.00%     40.30% # Type of FU issued
system.cpu.iq.FU_type_0::SimdAesMix                 0      0.00%     40.30% # Type of FU issued
system.cpu.iq.FU_type_0::SimdSha1Hash               0      0.00%     40.30% # Type of FU issued
system.cpu.iq.FU_type_0::SimdSha1Hash2              0      0.00%     40.30% # Type of FU issued
system.cpu.iq.FU_type_0::SimdSha256Hash             0      0.00%     40.30% # Type of FU issued
system.cpu.iq.FU_type_0::SimdSha256Hash2            0      0.00%     40.30% # Type of FU issued
system.cpu.iq.FU_type_0::SimdShaSigma2              0      0.00%     40.30% # Type of FU issued
system.cpu.iq.FU_type_0::SimdShaSigma3              0      0.00%     40.30% # Type of FU issued
system.cpu.iq.FU_type_0::SimdPredAlu                0      0.00%     40.30% # Type of FU issued
system.cpu.iq.FU_type_0::MemRead              7277146     49.19%     89.49% # Type of FU issued
system.cpu.iq.FU_type_0::MemWrite             1554336     10.51%    100.00% # Type of FU issued
system.cpu.iq.FU_type_0::FloatMemRead               0      0.00%    100.00% # Type of FU issued
system.cpu.iq.FU_type_0::FloatMemWrite              0      0.00%    100.00% # Type of FU issued
system.cpu.iq.FU_type_0::IprAccess                  0      0.00%    100.00% # Type of FU issued
system.cpu.iq.FU_type_0::InstPrefetch               0      0.00%    100.00% # Type of FU issued
system.cpu.iq.FU_type_0::total               14794302                       # Type of FU issued
system.cpu.iq.fp_alu_accesses                       0                       # Number of floating point alu accesses
system.cpu.iq.fp_inst_queue_reads                   0                       # Number of floating instruction queue reads
system.cpu.iq.fp_inst_queue_wakeup_accesses            0                       # Number of floating instruction queue wakeup accesses
system.cpu.iq.fp_inst_queue_writes                  0                       # Number of floating instruction queue writes
system.cpu.iq.fu_busy_cnt                      988096                       # FU busy when requested
system.cpu.iq.fu_busy_rate                   0.066789                       # FU busy rate (busy events/executed inst)
system.cpu.iq.fu_full::No_OpClass                   0      0.00%      0.00% # attempts to use FU when none available
system.cpu.iq.fu_full::IntAlu                     248      0.03%      0.03% # attempts to use FU when none available
system.cpu.iq.fu_full::IntMult                      0      0.00%      0.03% # attempts to use FU when none available
system.cpu.iq.fu_full::IntDiv                       0      0.00%      0.03% # attempts to use FU when none available
system.cpu.iq.fu_full::FloatAdd                     0      0.00%      0.03% # attempts to use FU when none available
system.cpu.iq.fu_full::FloatCmp                     0      0.00%      0.03% # attempts to use FU when none available
system.cpu.iq.fu_full::FloatCvt                     0      0.00%      0.03% # attempts to use FU when none available
system.cpu.iq.fu_full::FloatMult                    0      0.00%      0.03% # attempts to use FU when none available
system.cpu.iq.fu_full::FloatMultAcc                 0      0.00%      0.03% # attempts to use FU when none available
system.cpu.iq.fu_full::FloatDiv                     0      0.00%      0.03% # attempts to use FU when none available
system.cpu.iq.fu_full::FloatMisc                    0      0.00%      0.03% # attempts to use FU when none available
system.cpu.iq.fu_full::FloatSqrt                    0      0.00%      0.03% # attempts to use FU when none available
system.cpu.iq.fu_full::SimdAdd                      0      0.00%      0.03% # attempts to use FU when none available
system.cpu.iq.fu_full::SimdAddAcc                   0      0.00%      0.03% # attempts to use FU when none available
system.cpu.iq.fu_full::SimdAlu                      1      0.00%      0.03% # attempts to use FU when none available
system.cpu.iq.fu_full::SimdCmp                      2      0.00%      0.03% # attempts to use FU when none available
system.cpu.iq.fu_full::SimdCvt                      0      0.00%      0.03% # attempts to use FU when none available
system.cpu.iq.fu_full::SimdMisc                     0      0.00%      0.03% # attempts to use FU when none available
system.cpu.iq.fu_full::SimdMult                     0      0.00%      0.03% # attempts to use FU when none available
system.cpu.iq.fu_full::SimdMultAcc                  0      0.00%      0.03% # attempts to use FU when none available
system.cpu.iq.fu_full::SimdShift                    0      0.00%      0.03% # attempts to use FU when none available
system.cpu.iq.fu_full::SimdShiftAcc                 0      0.00%      0.03% # attempts to use FU when none available
system.cpu.iq.fu_full::SimdDiv                      0      0.00%      0.03% # attempts to use FU when none available
system.cpu.iq.fu_full::SimdSqrt                     0      0.00%      0.03% # attempts to use FU when none available
system.cpu.iq.fu_full::SimdFloatAdd                 0      0.00%      0.03% # attempts to use FU when none available
system.cpu.iq.fu_full::SimdFloatAlu                 0      0.00%      0.03% # attempts to use FU when none available
system.cpu.iq.fu_full::SimdFloatCmp                 0      0.00%      0.03% # attempts to use FU when none available
system.cpu.iq.fu_full::SimdFloatCvt                 0      0.00%      0.03% # attempts to use FU when none available
system.cpu.iq.fu_full::SimdFloatDiv                 0      0.00%      0.03% # attempts to use FU when none available
system.cpu.iq.fu_full::SimdFloatMisc                0      0.00%      0.03% # attempts to use FU when none available
system.cpu.iq.fu_full::SimdFloatMult                0      0.00%      0.03% # attempts to use FU when none available
system.cpu.iq.fu_full::SimdFloatMultAcc             0      0.00%      0.03% # attempts to use FU when none available
system.cpu.iq.fu_full::SimdFloatSqrt                0      0.00%      0.03% # attempts to use FU when none available
system.cpu.iq.fu_full::SimdReduceAdd                0      0.00%      0.03% # attempts to use FU when none available
system.cpu.iq.fu_full::SimdReduceAlu                0      0.00%      0.03% # attempts to use FU when none available
system.cpu.iq.fu_full::SimdReduceCmp                0      0.00%      0.03% # attempts to use FU when none available
system.cpu.iq.fu_full::SimdFloatReduceAdd            0      0.00%      0.03% # attempts to use FU when none available
system.cpu.iq.fu_full::SimdFloatReduceCmp            0      0.00%      0.03% # attempts to use FU when none available
system.cpu.iq.fu_full::SimdAes                      0      0.00%      0.03% # attempts to use FU when none available
system.cpu.iq.fu_full::SimdAesMix                   0      0.00%      0.03% # attempts to use FU when none available
system.cpu.iq.fu_full::SimdSha1Hash                 0      0.00%      0.03% # attempts to use FU when none available
system.cpu.iq.fu_full::SimdSha1Hash2                0      0.00%      0.03% # attempts to use FU when none available
system.cpu.iq.fu_full::SimdSha256Hash               0      0.00%      0.03% # attempts to use FU when none available
system.cpu.iq.fu_full::SimdSha256Hash2              0      0.00%      0.03% # attempts to use FU when none available
system.cpu.iq.fu_full::SimdShaSigma2                0      0.00%      0.03% # attempts to use FU when none available
system.cpu.iq.fu_full::SimdShaSigma3                0      0.00%      0.03% # attempts to use FU when none available
system.cpu.iq.fu_full::SimdPredAlu                  0      0.00%      0.03% # attempts to use FU when none available
system.cpu.iq.fu_full::MemRead                 987203     99.91%     99.94% # attempts to use FU when none available
system.cpu.iq.fu_full::MemWrite                   642      0.06%    100.00% # attempts to use FU when none available
system.cpu.iq.fu_full::FloatMemRead                 0      0.00%    100.00% # attempts to use FU when none available
system.cpu.iq.fu_full::FloatMemWrite                0      0.00%    100.00% # attempts to use FU when none available
system.cpu.iq.fu_full::IprAccess                    0      0.00%    100.00% # attempts to use FU when none available
system.cpu.iq.fu_full::InstPrefetch                 0      0.00%    100.00% # attempts to use FU when none available
system.cpu.iq.int_alu_accesses               15781957                       # Number of integer alu accesses
system.cpu.iq.int_inst_queue_reads           49151314                       # Number of integer instruction queue reads
system.cpu.iq.int_inst_queue_wakeup_accesses     10524360                       # Number of integer instruction queue wakeup accesses
system.cpu.iq.int_inst_queue_writes          11228191                       # Number of integer instruction queue writes
system.cpu.iq.iqInstsAdded                   10616383                       # Number of instructions added to the IQ (excludes non-spec)
system.cpu.iq.iqInstsIssued                  14794302                       # Number of instructions issued
system.cpu.iq.iqNonSpecInstsAdded                  34                       # Number of non-speculative instructions added to the IQ
system.cpu.iq.iqSquashedInstsExamined          612631                       # Number of squashed instructions iterated over during squash; mainly for profiling
system.cpu.iq.iqSquashedInstsIssued               149                       # Number of squashed instructions issued
system.cpu.iq.iqSquashedNonSpecRemoved              8                       # Number of squashed non-spec instructions that were removed
system.cpu.iq.iqSquashedOperandsExamined       201029                       # Number of squashed operands that are examined and possibly removed from graph
system.cpu.iq.issued_per_cycle::samples      18575391                       # Number of insts issued each cycle
system.cpu.iq.issued_per_cycle::mean         0.796446                       # Number of insts issued each cycle
system.cpu.iq.issued_per_cycle::stdev        1.872268                       # Number of insts issued each cycle
system.cpu.iq.issued_per_cycle::underflows            0      0.00%      0.00% # Number of insts issued each cycle
system.cpu.iq.issued_per_cycle::0            15126053     81.43%     81.43% # Number of insts issued each cycle
system.cpu.iq.issued_per_cycle::1              376154      2.03%     83.46% # Number of insts issued each cycle
system.cpu.iq.issued_per_cycle::2              246504      1.33%     84.78% # Number of insts issued each cycle
system.cpu.iq.issued_per_cycle::3              395614      2.13%     86.91% # Number of insts issued each cycle
system.cpu.iq.issued_per_cycle::4             1181750      6.36%     93.27% # Number of insts issued each cycle
system.cpu.iq.issued_per_cycle::5              404938      2.18%     95.45% # Number of insts issued each cycle
system.cpu.iq.issued_per_cycle::6              214345      1.15%     96.61% # Number of insts issued each cycle
system.cpu.iq.issued_per_cycle::7              339726      1.83%     98.44% # Number of insts issued each cycle
system.cpu.iq.issued_per_cycle::8              290307      1.56%    100.00% # Number of insts issued each cycle
system.cpu.iq.issued_per_cycle::overflows            0      0.00%    100.00% # Number of insts issued each cycle
system.cpu.iq.issued_per_cycle::min_value            0                       # Number of insts issued each cycle
system.cpu.iq.issued_per_cycle::max_value            8                       # Number of insts issued each cycle
system.cpu.iq.issued_per_cycle::total        18575391                       # Number of insts issued each cycle
system.cpu.iq.rate                           0.795137                       # Inst issue rate
system.cpu.iq.vec_alu_accesses                    436                       # Number of vector alu accesses
system.cpu.iq.vec_inst_queue_reads                922                       # Number of vector instruction queue reads
system.cpu.iq.vec_inst_queue_wakeup_accesses          330                       # Number of vector instruction queue wakeup accesses
system.cpu.iq.vec_inst_queue_writes               870                       # Number of vector instruction queue writes
system.cpu.itb.accesses                             0                       # DTB accesses
system.cpu.itb.align_faults                         0                       # Number of TLB faults due to alignment restrictions
system.cpu.itb.domain_faults                        0                       # Number of TLB faults due to domain restrictions
system.cpu.itb.flush_entries                        0                       # Number of entries that have been flushed from TLB
system.cpu.itb.flush_tlb                            0                       # Number of times complete TLB was flushed
system.cpu.itb.flush_tlb_asid                       0                       # Number of times TLB was flushed by ASID
system.cpu.itb.flush_tlb_mva                        0                       # Number of times TLB was flushed by MVA
system.cpu.itb.flush_tlb_mva_asid                   0                       # Number of times TLB was flushed by MVA & ASID
system.cpu.itb.hits                                 0                       # DTB hits
system.cpu.itb.inst_accesses                        0                       # ITB inst accesses
system.cpu.itb.inst_hits                            0                       # ITB inst hits
system.cpu.itb.inst_misses                          0                       # ITB inst misses
system.cpu.itb.misses                               0                       # DTB misses
system.cpu.itb.perms_faults                         0                       # Number of TLB faults due to permissions restrictions
system.cpu.itb.prefetch_faults                      0                       # Number of TLB faults due to prefetch
system.cpu.itb.read_accesses                        0                       # DTB read accesses
system.cpu.itb.read_hits                            0                       # DTB read hits
system.cpu.itb.read_misses                          0                       # DTB read misses
system.cpu.itb.stage2_mmu.stage2_tlb.accesses            0                       # DTB accesses
system.cpu.itb.stage2_mmu.stage2_tlb.align_faults            0                       # Number of TLB faults due to alignment restrictions
system.cpu.itb.stage2_mmu.stage2_tlb.domain_faults            0                       # Number of TLB faults due to domain restrictions
system.cpu.itb.stage2_mmu.stage2_tlb.flush_entries            0                       # Number of entries that have been flushed from TLB
system.cpu.itb.stage2_mmu.stage2_tlb.flush_tlb            0                       # Number of times complete TLB was flushed
system.cpu.itb.stage2_mmu.stage2_tlb.flush_tlb_asid            0                       # Number of times TLB was flushed by ASID
system.cpu.itb.stage2_mmu.stage2_tlb.flush_tlb_mva            0                       # Number of times TLB was flushed by MVA
system.cpu.itb.stage2_mmu.stage2_tlb.flush_tlb_mva_asid            0                       # Number of times TLB was flushed by MVA & ASID
system.cpu.itb.stage2_mmu.stage2_tlb.hits            0                       # DTB hits
system.cpu.itb.stage2_mmu.stage2_tlb.inst_accesses            0                       # ITB inst accesses
system.cpu.itb.stage2_mmu.stage2_tlb.inst_hits            0                       # ITB inst hits
system.cpu.itb.stage2_mmu.stage2_tlb.inst_misses            0                       # ITB inst misses
system.cpu.itb.stage2_mmu.stage2_tlb.misses            0                       # DTB misses
system.cpu.itb.stage2_mmu.stage2_tlb.perms_faults            0                       # Number of TLB faults due to permissions restrictions
system.cpu.itb.stage2_mmu.stage2_tlb.prefetch_faults            0                       # Number of TLB faults due to prefetch
system.cpu.itb.stage2_mmu.stage2_tlb.read_accesses            0                       # DTB read accesses
system.cpu.itb.stage2_mmu.stage2_tlb.read_hits            0                       # DTB read hits
system.cpu.itb.stage2_mmu.stage2_tlb.read_misses            0                       # DTB read misses
system.cpu.itb.stage2_mmu.stage2_tlb.walker.walkRequestOrigin_Requested::Data            0                       # Table walker requests started/completed, data/inst
system.cpu.itb.stage2_mmu.stage2_tlb.walker.walkRequestOrigin_Requested::Inst            0                       # Table walker requests started/completed, data/inst
system.cpu.itb.stage2_mmu.stage2_tlb.walker.walkRequestOrigin_Requested::total            0                       # Table walker requests started/completed, data/inst
system.cpu.itb.stage2_mmu.stage2_tlb.walker.walkRequestOrigin_Completed::Data            0                       # Table walker requests started/completed, data/inst
system.cpu.itb.stage2_mmu.stage2_tlb.walker.walkRequestOrigin_Completed::Inst            0                       # Table walker requests started/completed, data/inst
system.cpu.itb.stage2_mmu.stage2_tlb.walker.walkRequestOrigin_Completed::total            0                       # Table walker requests started/completed, data/inst
system.cpu.itb.stage2_mmu.stage2_tlb.walker.walkRequestOrigin::total            0                       # Table walker requests started/completed, data/inst
system.cpu.itb.stage2_mmu.stage2_tlb.walker.walks            0                       # Table walker walks requested
system.cpu.itb.stage2_mmu.stage2_tlb.write_accesses            0                       # DTB write accesses
system.cpu.itb.stage2_mmu.stage2_tlb.write_hits            0                       # DTB write hits
system.cpu.itb.stage2_mmu.stage2_tlb.write_misses            0                       # DTB write misses
system.cpu.itb.walker.walkRequestOrigin_Requested::Data            0                       # Table walker requests started/completed, data/inst
system.cpu.itb.walker.walkRequestOrigin_Requested::Inst            0                       # Table walker requests started/completed, data/inst
system.cpu.itb.walker.walkRequestOrigin_Requested::total            0                       # Table walker requests started/completed, data/inst
system.cpu.itb.walker.walkRequestOrigin_Completed::Data            0                       # Table walker requests started/completed, data/inst
system.cpu.itb.walker.walkRequestOrigin_Completed::Inst            0                       # Table walker requests started/completed, data/inst
system.cpu.itb.walker.walkRequestOrigin_Completed::total            0                       # Table walker requests started/completed, data/inst
system.cpu.itb.walker.walkRequestOrigin::total            0                       # Table walker requests started/completed, data/inst
system.cpu.itb.walker.walks                         0                       # Table walker walks requested
system.cpu.itb.write_accesses                       0                       # DTB write accesses
system.cpu.itb.write_hits                           0                       # DTB write hits
system.cpu.itb.write_misses                         0                       # DTB write misses
system.cpu.memDep0.conflictingLoads              2623                       # Number of conflicting loads.
system.cpu.memDep0.conflictingStores             2522                       # Number of conflicting stores.
system.cpu.memDep0.insertedLoads              3096247                       # Number of loads inserted to the mem dependence unit.
system.cpu.memDep0.insertedStores             1554775                       # Number of stores inserted to the mem dependence unit.
system.cpu.misc_regfile_reads                 8479789                       # number of misc regfile reads
system.cpu.misc_regfile_writes                     65                       # number of misc regfile writes
system.cpu.numCycles                         18605976                       # number of cpu cycles simulated
system.cpu.numWorkItemsCompleted                    0                       # number of work items this cpu completed
system.cpu.numWorkItemsStarted                      0                       # number of work items this cpu started
system.cpu.rename.BlockCycles                12266305                       # Number of cycles rename is blocking
system.cpu.rename.CommittedMaps              11474654                       # Number of HB maps that are committed
system.cpu.rename.IQFullEvents                 273091                       # Number of times rename has blocked due to IQ full
system.cpu.rename.IdleCycles                   634316                       # Number of cycles rename is idle
system.cpu.rename.LQFullEvents                 471500                       # Number of times rename has blocked due to LQ full
system.cpu.rename.ROBFullEvents                   223                       # Number of times rename has blocked due to ROB full
system.cpu.rename.RenameLookups              18411084                       # Number of register rename lookups that rename has made
system.cpu.rename.RenamedInsts               10622184                       # Number of instructions processed by rename
system.cpu.rename.RenamedOperands            12180275                       # Number of destination operands rename has renamed
system.cpu.rename.RunCycles                   1404769                       # Number of cycles rename is running
system.cpu.rename.SQFullEvents                3459098                       # Number of times rename has blocked due to SQ full
system.cpu.rename.SquashCycles                   5807                       # Number of cycles rename is squashing
system.cpu.rename.UnblockCycles               4260110                       # Number of cycles rename is unblocking
system.cpu.rename.UndoneMaps                   705571                       # Number of HB maps that are undone due to squashing
system.cpu.rename.int_rename_lookups         13718174                       # Number of integer rename lookups
system.cpu.rename.serializeStallCycles           4084                       # count of cycles rename stalled for serializing inst
system.cpu.rename.serializingInsts                103                       # count of serializing insts renamed
system.cpu.rename.skidInsts                   1602039                       # count of insts added to the skid buffer
system.cpu.rename.tempSerializingInsts             33                       # count of temporary serializing insts renamed
system.cpu.rename.vec_rename_lookups              632                       # Number of vector rename lookups
system.cpu.rob.rob_reads                     28278342                       # The number of ROB reads
system.cpu.rob.rob_writes                    21317737                       # The number of ROB writes
system.cpu.timesIdled                             315                       # Number of times that the entire CPU went into an idle state and unscheduled itself
system.cpu.vec_regfile_reads                      372                       # number of vector regfile reads
system.cpu.vec_regfile_writes                      92                       # number of vector regfile writes
system.cpu.workload.numSyscalls                     9                       # Number of system calls
system.membus.snoop_filter.hit_multi_requests            0                       # Number of requests hitting in the snoop filter with multiple (>1) holders of the requested data.
system.membus.snoop_filter.hit_multi_snoops            0                       # Number of snoops hitting in the snoop filter with multiple (>1) holders of the requested data.
system.membus.snoop_filter.hit_single_requests       296691                       # Number of requests hitting in the snoop filter with a single holder of the requested data.
system.membus.snoop_filter.hit_single_snoops            0                       # Number of snoops hitting in the snoop filter with a single holder of the requested data.
system.membus.snoop_filter.tot_requests        626386                       # Total number of requests made to the snoop filter.
system.membus.snoop_filter.tot_snoops               0                       # Total number of snoops made to the snoop filter.
system.tol2bus.snoop_filter.hit_multi_requests            1                       # Number of requests hitting in the snoop filter with multiple (>1) holders of the requested data.
system.tol2bus.snoop_filter.hit_multi_snoops            0                       # Number of snoops hitting in the snoop filter with multiple (>1) holders of the requested data.
system.tol2bus.snoop_filter.hit_single_requests       328509                       # Number of requests hitting in the snoop filter with a single holder of the requested data.
system.tol2bus.snoop_filter.hit_single_snoops          239                       # Number of snoops hitting in the snoop filter with a single holder of the requested data.
system.tol2bus.snoop_filter.tot_requests       658278                       # Total number of requests made to the snoop filter.
system.tol2bus.snoop_filter.tot_snoops            239                       # Total number of snoops made to the snoop filter.
system.membus.trans_dist::ReadResp                473                       # Transaction distribution
system.membus.trans_dist::WritebackDirty       296472                       # Transaction distribution
system.membus.trans_dist::CleanEvict              219                       # Transaction distribution
system.membus.trans_dist::ReadExReq            326397                       # Transaction distribution
system.membus.trans_dist::ReadExResp           326397                       # Transaction distribution
system.membus.trans_dist::ReadSharedReq           473                       # Transaction distribution
system.membus.trans_dist::InvalidateReq          2825                       # Transaction distribution
system.membus.pkt_count_system.l2.mem_side::system.mem_ctrls.port       953256                       # Packet count per connected master and slave (bytes)
system.membus.pkt_count::total                 953256                       # Packet count per connected master and slave (bytes)
system.membus.pkt_size_system.l2.mem_side::system.mem_ctrls.port     39893888                       # Cumulative packet size per connected master and slave (bytes)
system.membus.pkt_size::total                39893888                       # Cumulative packet size per connected master and slave (bytes)
system.membus.snoops                                0                       # Total snoops (count)
system.membus.snoopTraffic                          0                       # Total snoop traffic (bytes)
system.membus.snoop_fanout::samples            329695                       # Request fanout histogram
system.membus.snoop_fanout::mean                    0                       # Request fanout histogram
system.membus.snoop_fanout::stdev                   0                       # Request fanout histogram
system.membus.snoop_fanout::underflows              0      0.00%      0.00% # Request fanout histogram
system.membus.snoop_fanout::0                  329695    100.00%    100.00% # Request fanout histogram
system.membus.snoop_fanout::1                       0      0.00%    100.00% # Request fanout histogram
system.membus.snoop_fanout::overflows               0      0.00%    100.00% # Request fanout histogram
system.membus.snoop_fanout::min_value               0                       # Request fanout histogram
system.membus.snoop_fanout::max_value               0                       # Request fanout histogram
system.membus.snoop_fanout::total              329695                       # Request fanout histogram
system.membus.reqLayer0.occupancy          1900564500                       # Layer occupancy (ticks)
system.membus.reqLayer0.utilization              20.4                       # Layer utilization (%)
system.membus.respLayer1.occupancy         1700086000                       # Layer occupancy (ticks)
system.membus.respLayer1.utilization             18.3                       # Layer utilization (%)
system.membus.power_state.pwrStateResidencyTicks::UNDEFINED   9302987500                       # Cumulative time (in ticks) in various power states
system.tol2bus.trans_dist::ReadResp               531                       # Transaction distribution
system.tol2bus.trans_dist::WritebackDirty       624728                       # Transaction distribution
system.tol2bus.trans_dist::WritebackClean          174                       # Transaction distribution
system.tol2bus.trans_dist::CleanEvict             536                       # Transaction distribution
system.tol2bus.trans_dist::ReadExReq           326412                       # Transaction distribution
system.tol2bus.trans_dist::ReadExResp          326411                       # Transaction distribution
system.tol2bus.trans_dist::ReadCleanReq           409                       # Transaction distribution
system.tol2bus.trans_dist::ReadSharedReq          122                       # Transaction distribution
system.tol2bus.trans_dist::InvalidateReq         2826                       # Transaction distribution
system.tol2bus.trans_dist::InvalidateResp         2826                       # Transaction distribution
system.tol2bus.pkt_count_system.cpu.icache.mem_side::system.l2.cpu_side          992                       # Packet count per connected master and slave (bytes)
system.tol2bus.pkt_count_system.cpu.dcache.mem_side::system.l2.cpu_side       987054                       # Packet count per connected master and slave (bytes)
system.tol2bus.pkt_count::total                988046                       # Packet count per connected master and slave (bytes)
system.tol2bus.pkt_size_system.cpu.icache.mem_side::system.l2.cpu_side        37312                       # Cumulative packet size per connected master and slave (bytes)
system.tol2bus.pkt_size_system.cpu.dcache.mem_side::system.l2.cpu_side     41906496                       # Cumulative packet size per connected master and slave (bytes)
system.tol2bus.pkt_size::total               41943808                       # Cumulative packet size per connected master and slave (bytes)
system.tol2bus.snoops                          296929                       # Total snoops (count)
system.tol2bus.snoopTraffic                  18974208                       # Total snoop traffic (bytes)
system.tol2bus.snoop_fanout::samples           626698                       # Request fanout histogram
system.tol2bus.snoop_fanout::mean            0.000383                       # Request fanout histogram
system.tol2bus.snoop_fanout::stdev           0.019566                       # Request fanout histogram
system.tol2bus.snoop_fanout::underflows             0      0.00%      0.00% # Request fanout histogram
system.tol2bus.snoop_fanout::0                 626458     99.96%     99.96% # Request fanout histogram
system.tol2bus.snoop_fanout::1                    240      0.04%    100.00% # Request fanout histogram
system.tol2bus.snoop_fanout::2                      0      0.00%    100.00% # Request fanout histogram
system.tol2bus.snoop_fanout::overflows              0      0.00%    100.00% # Request fanout histogram
system.tol2bus.snoop_fanout::min_value              0                       # Request fanout histogram
system.tol2bus.snoop_fanout::max_value              1                       # Request fanout histogram
system.tol2bus.snoop_fanout::total             626698                       # Request fanout histogram
system.tol2bus.reqLayer0.occupancy          657569000                       # Layer occupancy (ticks)
system.tol2bus.reqLayer0.utilization              7.1                       # Layer utilization (%)
system.tol2bus.respLayer1.occupancy         491212500                       # Layer occupancy (ticks)
system.tol2bus.respLayer1.utilization             5.3                       # Layer utilization (%)
system.tol2bus.respLayer0.occupancy            613500                       # Layer occupancy (ticks)
system.tol2bus.respLayer0.utilization             0.0                       # Layer utilization (%)
system.tol2bus.power_state.pwrStateResidencyTicks::UNDEFINED   9302987500                       # Cumulative time (in ticks) in various power states
system.voltage_domain.voltage                       1                       # Voltage in Volts
system.clk_domain.clock                          1000                       # Clock period in ticks
system.l2.demand_hits::.cpu.inst                   27                       # number of demand (read+write) hits
system.l2.demand_hits::.cpu.data                   45                       # number of demand (read+write) hits
system.l2.demand_hits::total                       72                       # number of demand (read+write) hits
system.l2.overall_hits::.cpu.inst                  27                       # number of overall hits
system.l2.overall_hits::.cpu.data                  45                       # number of overall hits
system.l2.overall_hits::total                      72                       # number of overall hits
system.l2.demand_misses::.cpu.inst                382                       # number of demand (read+write) misses
system.l2.demand_misses::.cpu.data             326489                       # number of demand (read+write) misses
system.l2.demand_misses::total                 326871                       # number of demand (read+write) misses
system.l2.overall_misses::.cpu.inst               382                       # number of overall misses
system.l2.overall_misses::.cpu.data            326489                       # number of overall misses
system.l2.overall_misses::total                326871                       # number of overall misses
system.l2.demand_miss_latency::.cpu.inst     30572500                       # number of demand (read+write) miss cycles
system.l2.demand_miss_latency::.cpu.data  34365967000                       # number of demand (read+write) miss cycles
system.l2.demand_miss_latency::total      34396539500                       # number of demand (read+write) miss cycles
system.l2.overall_miss_latency::.cpu.inst     30572500                       # number of overall miss cycles
system.l2.overall_miss_latency::.cpu.data  34365967000                       # number of overall miss cycles
system.l2.overall_miss_latency::total     34396539500                       # number of overall miss cycles
system.l2.demand_accesses::.cpu.inst              409                       # number of demand (read+write) accesses
system.l2.demand_accesses::.cpu.data           326534                       # number of demand (read+write) accesses
system.l2.demand_accesses::total               326943                       # number of demand (read+write) accesses
system.l2.overall_accesses::.cpu.inst             409                       # number of overall (read+write) accesses
system.l2.overall_accesses::.cpu.data          326534                       # number of overall (read+write) accesses
system.l2.overall_accesses::total              326943                       # number of overall (read+write) accesses
system.l2.demand_miss_rate::.cpu.inst        0.933985                       # miss rate for demand accesses
system.l2.demand_miss_rate::.cpu.data        0.999862                       # miss rate for demand accesses
system.l2.demand_miss_rate::total            0.999780                       # miss rate for demand accesses
system.l2.overall_miss_rate::.cpu.inst       0.933985                       # miss rate for overall accesses
system.l2.overall_miss_rate::.cpu.data       0.999862                       # miss rate for overall accesses
system.l2.overall_miss_rate::total           0.999780                       # miss rate for overall accesses
system.l2.demand_avg_miss_latency::.cpu.inst 80032.722513                       # average overall miss latency
system.l2.demand_avg_miss_latency::.cpu.data 105259.187905                       # average overall miss latency
system.l2.demand_avg_miss_latency::total 105229.706826                       # average overall miss latency
system.l2.overall_avg_miss_latency::.cpu.inst 80032.722513                       # average overall miss latency
system.l2.overall_avg_miss_latency::.cpu.data 105259.187905                       # average overall miss latency
system.l2.overall_avg_miss_latency::total 105229.706826                       # average overall miss latency
system.l2.blocked_cycles::no_mshrs                  0                       # number of cycles access was blocked
system.l2.blocked_cycles::no_targets                0                       # number of cycles access was blocked
system.l2.blocked::no_mshrs                         0                       # number of cycles access was blocked
system.l2.blocked::no_targets                       0                       # number of cycles access was blocked
system.l2.avg_blocked_cycles::no_mshrs            nan                       # average number of cycles each access was blocked
system.l2.avg_blocked_cycles::no_targets          nan                       # average number of cycles each access was blocked
system.l2.writebacks::.writebacks              296472                       # number of writebacks
system.l2.writebacks::total                    296472                       # number of writebacks
system.l2.demand_mshr_misses::.cpu.inst           382                       # number of demand (read+write) MSHR misses
system.l2.demand_mshr_misses::.cpu.data        326489                       # number of demand (read+write) MSHR misses
system.l2.demand_mshr_misses::total            326871                       # number of demand (read+write) MSHR misses
system.l2.overall_mshr_misses::.cpu.inst          382                       # number of overall MSHR misses
system.l2.overall_mshr_misses::.cpu.data       326489                       # number of overall MSHR misses
system.l2.overall_mshr_misses::total           326871                       # number of overall MSHR misses
system.l2.demand_mshr_miss_latency::.cpu.inst     26752500                       # number of demand (read+write) MSHR miss cycles
system.l2.demand_mshr_miss_latency::.cpu.data  31101087000                       # number of demand (read+write) MSHR miss cycles
system.l2.demand_mshr_miss_latency::total  31127839500                       # number of demand (read+write) MSHR miss cycles
system.l2.overall_mshr_miss_latency::.cpu.inst     26752500                       # number of overall MSHR miss cycles
system.l2.overall_mshr_miss_latency::.cpu.data  31101087000                       # number of overall MSHR miss cycles
system.l2.overall_mshr_miss_latency::total  31127839500                       # number of overall MSHR miss cycles
system.l2.demand_mshr_miss_rate::.cpu.inst     0.933985                       # mshr miss rate for demand accesses
system.l2.demand_mshr_miss_rate::.cpu.data     0.999862                       # mshr miss rate for demand accesses
system.l2.demand_mshr_miss_rate::total       0.999780                       # mshr miss rate for demand accesses
system.l2.overall_mshr_miss_rate::.cpu.inst     0.933985                       # mshr miss rate for overall accesses
system.l2.overall_mshr_miss_rate::.cpu.data     0.999862                       # mshr miss rate for overall accesses
system.l2.overall_mshr_miss_rate::total      0.999780                       # mshr miss rate for overall accesses
system.l2.demand_avg_mshr_miss_latency::.cpu.inst 70032.722513                       # average overall mshr miss latency
system.l2.demand_avg_mshr_miss_latency::.cpu.data 95259.218534                       # average overall mshr miss latency
system.l2.demand_avg_mshr_miss_latency::total 95229.737419                       # average overall mshr miss latency
system.l2.overall_avg_mshr_miss_latency::.cpu.inst 70032.722513                       # average overall mshr miss latency
system.l2.overall_avg_mshr_miss_latency::.cpu.data 95259.218534                       # average overall mshr miss latency
system.l2.overall_avg_mshr_miss_latency::total 95229.737419                       # average overall mshr miss latency
system.l2.replacements                         296929                       # number of replacements
system.l2.WritebackDirty_hits::.writebacks       328256                       # number of WritebackDirty hits
system.l2.WritebackDirty_hits::total           328256                       # number of WritebackDirty hits
system.l2.WritebackDirty_accesses::.writebacks       328256                       # number of WritebackDirty accesses(hits+misses)
system.l2.WritebackDirty_accesses::total       328256                       # number of WritebackDirty accesses(hits+misses)
system.l2.WritebackClean_hits::.writebacks          174                       # number of WritebackClean hits
system.l2.WritebackClean_hits::total              174                       # number of WritebackClean hits
system.l2.WritebackClean_accesses::.writebacks          174                       # number of WritebackClean accesses(hits+misses)
system.l2.WritebackClean_accesses::total          174                       # number of WritebackClean accesses(hits+misses)
system.l2.CleanEvict_mshr_misses::.writebacks            1                       # number of CleanEvict MSHR misses
system.l2.CleanEvict_mshr_misses::total             1                       # number of CleanEvict MSHR misses
system.l2.CleanEvict_mshr_miss_rate::.writebacks          inf                       # mshr miss rate for CleanEvict accesses
system.l2.CleanEvict_mshr_miss_rate::total          inf                       # mshr miss rate for CleanEvict accesses
system.l2.ReadExReq_hits::.cpu.data                14                       # number of ReadExReq hits
system.l2.ReadExReq_hits::total                    14                       # number of ReadExReq hits
system.l2.ReadExReq_misses::.cpu.data          326398                       # number of ReadExReq misses
system.l2.ReadExReq_misses::total              326398                       # number of ReadExReq misses
system.l2.ReadExReq_miss_latency::.cpu.data  34357903000                       # number of ReadExReq miss cycles
system.l2.ReadExReq_miss_latency::total   34357903000                       # number of ReadExReq miss cycles
system.l2.ReadExReq_accesses::.cpu.data        326412                       # number of ReadExReq accesses(hits+misses)
system.l2.ReadExReq_accesses::total            326412                       # number of ReadExReq accesses(hits+misses)
system.l2.ReadExReq_miss_rate::.cpu.data     0.999957                       # miss rate for ReadExReq accesses
system.l2.ReadExReq_miss_rate::total         0.999957                       # miss rate for ReadExReq accesses
system.l2.ReadExReq_avg_miss_latency::.cpu.data 105263.828210                       # average ReadExReq miss latency
system.l2.ReadExReq_avg_miss_latency::total 105263.828210                       # average ReadExReq miss latency
system.l2.ReadExReq_mshr_misses::.cpu.data       326398                       # number of ReadExReq MSHR misses
system.l2.ReadExReq_mshr_misses::total         326398                       # number of ReadExReq MSHR misses
system.l2.ReadExReq_mshr_miss_latency::.cpu.data  31093933000                       # number of ReadExReq MSHR miss cycles
system.l2.ReadExReq_mshr_miss_latency::total  31093933000                       # number of ReadExReq MSHR miss cycles
system.l2.ReadExReq_mshr_miss_rate::.cpu.data     0.999957                       # mshr miss rate for ReadExReq accesses
system.l2.ReadExReq_mshr_miss_rate::total     0.999957                       # mshr miss rate for ReadExReq accesses
system.l2.ReadExReq_avg_mshr_miss_latency::.cpu.data 95263.858847                       # average ReadExReq mshr miss latency
system.l2.ReadExReq_avg_mshr_miss_latency::total 95263.858847                       # average ReadExReq mshr miss latency
system.l2.ReadCleanReq_hits::.cpu.inst             27                       # number of ReadCleanReq hits
system.l2.ReadCleanReq_hits::total                 27                       # number of ReadCleanReq hits
system.l2.ReadCleanReq_misses::.cpu.inst          382                       # number of ReadCleanReq misses
system.l2.ReadCleanReq_misses::total              382                       # number of ReadCleanReq misses
system.l2.ReadCleanReq_miss_latency::.cpu.inst     30572500                       # number of ReadCleanReq miss cycles
system.l2.ReadCleanReq_miss_latency::total     30572500                       # number of ReadCleanReq miss cycles
system.l2.ReadCleanReq_accesses::.cpu.inst          409                       # number of ReadCleanReq accesses(hits+misses)
system.l2.ReadCleanReq_accesses::total            409                       # number of ReadCleanReq accesses(hits+misses)
system.l2.ReadCleanReq_miss_rate::.cpu.inst     0.933985                       # miss rate for ReadCleanReq accesses
system.l2.ReadCleanReq_miss_rate::total      0.933985                       # miss rate for ReadCleanReq accesses
system.l2.ReadCleanReq_avg_miss_latency::.cpu.inst 80032.722513                       # average ReadCleanReq miss latency
system.l2.ReadCleanReq_avg_miss_latency::total 80032.722513                       # average ReadCleanReq miss latency
system.l2.ReadCleanReq_mshr_misses::.cpu.inst          382                       # number of ReadCleanReq MSHR misses
[...]
system.cpu.icache.tags.occ_task_id_percent::1024     0.917969                       # Percentage of cache occupancy per task id
system.cpu.icache.tags.tag_accesses           1371831                       # Number of tag accesses
system.cpu.icache.tags.data_accesses          1371831                       # Number of data accesses
system.cpu.icache.tags.power_state.pwrStateResidencyTicks::UNDEFINED   9302987500                       # Cumulative time (in ticks) in various power states
system.cpu.dtb.walker.power_state.pwrStateResidencyTicks::UNDEFINED   9302987500                       # Cumulative time (in ticks) in various power states
system.cpu.dtb.stage2_mmu.stage2_tlb.walker.power_state.pwrStateResidencyTicks::UNDEFINED   9302987500                       # Cumulative time (in ticks) in various power states
system.cpu.itb.walker.power_state.pwrStateResidencyTicks::UNDEFINED   9302987500                       # Cumulative time (in ticks) in various power states
system.cpu.itb.stage2_mmu.stage2_tlb.walker.power_state.pwrStateResidencyTicks::UNDEFINED   9302987500                       # Cumulative time (in ticks) in various power states
system.cpu.dcache.demand_hits::.cpu.data      3101073                       # number of demand (read+write) hits
system.cpu.dcache.demand_hits::total          3101073                       # number of demand (read+write) hits
system.cpu.dcache.overall_hits::.cpu.data      3101077                       # number of overall hits
system.cpu.dcache.overall_hits::total         3101077                       # number of overall hits
system.cpu.dcache.demand_misses::.cpu.data      1460803                       # number of demand (read+write) misses
system.cpu.dcache.demand_misses::total        1460803                       # number of demand (read+write) misses
system.cpu.dcache.overall_misses::.cpu.data      1460806                       # number of overall misses
system.cpu.dcache.overall_misses::total       1460806                       # number of overall misses
system.cpu.dcache.demand_miss_latency::.cpu.data 127623293231                       # number of demand (read+write) miss cycles
system.cpu.dcache.demand_miss_latency::total 127623293231                       # number of demand (read+write) miss cycles
system.cpu.dcache.overall_miss_latency::.cpu.data 127623293231                       # number of overall miss cycles
system.cpu.dcache.overall_miss_latency::total 127623293231                       # number of overall miss cycles
system.cpu.dcache.demand_accesses::.cpu.data      4561876                       # number of demand (read+write) accesses
system.cpu.dcache.demand_accesses::total      4561876                       # number of demand (read+write) accesses
system.cpu.dcache.overall_accesses::.cpu.data      4561883                       # number of overall (read+write) accesses
system.cpu.dcache.overall_accesses::total      4561883                       # number of overall (read+write) accesses
system.cpu.dcache.demand_miss_rate::.cpu.data     0.320220                       # miss rate for demand accesses
system.cpu.dcache.demand_miss_rate::total     0.320220                       # miss rate for demand accesses
system.cpu.dcache.overall_miss_rate::.cpu.data     0.320220                       # miss rate for overall accesses
system.cpu.dcache.overall_miss_rate::total     0.320220                       # miss rate for overall accesses
system.cpu.dcache.demand_avg_miss_latency::.cpu.data 87365.163702                       # average overall miss latency
system.cpu.dcache.demand_avg_miss_latency::total 87365.163702                       # average overall miss latency
system.cpu.dcache.overall_avg_miss_latency::.cpu.data 87364.984283                       # average overall miss latency
system.cpu.dcache.overall_avg_miss_latency::total 87364.984283                       # average overall miss latency
system.cpu.dcache.blocked_cycles::no_mshrs     15945062                       # number of cycles access was blocked
system.cpu.dcache.blocked_cycles::no_targets          316                       # number of cycles access was blocked
system.cpu.dcache.blocked::no_mshrs            221994                       # number of cycles access was blocked
system.cpu.dcache.blocked::no_targets               1                       # number of cycles access was blocked
system.cpu.dcache.avg_blocked_cycles::no_mshrs    71.826545                       # average number of cycles each access was blocked
system.cpu.dcache.avg_blocked_cycles::no_targets          316                       # average number of cycles each access was blocked
system.cpu.dcache.writebacks::.writebacks       328256                       # number of writebacks
system.cpu.dcache.writebacks::total            328256                       # number of writebacks
system.cpu.dcache.demand_mshr_hits::.cpu.data      1131446                       # number of demand (read+write) MSHR hits
system.cpu.dcache.demand_mshr_hits::total      1131446                       # number of demand (read+write) MSHR hits
system.cpu.dcache.overall_mshr_hits::.cpu.data      1131446                       # number of overall MSHR hits
system.cpu.dcache.overall_mshr_hits::total      1131446                       # number of overall MSHR hits
system.cpu.dcache.demand_mshr_misses::.cpu.data       329357                       # number of demand (read+write) MSHR misses
system.cpu.dcache.demand_mshr_misses::total       329357                       # number of demand (read+write) MSHR misses
system.cpu.dcache.overall_mshr_misses::.cpu.data       329360                       # number of overall MSHR misses
system.cpu.dcache.overall_mshr_misses::total       329360                       # number of overall MSHR misses
system.cpu.dcache.demand_mshr_miss_latency::.cpu.data  35103342984                       # number of demand (read+write) MSHR miss cycles
system.cpu.dcache.demand_mshr_miss_latency::total  35103342984                       # number of demand (read+write) MSHR miss cycles
system.cpu.dcache.overall_mshr_miss_latency::.cpu.data  35103613484                       # number of overall MSHR miss cycles
system.cpu.dcache.overall_mshr_miss_latency::total  35103613484                       # number of overall MSHR miss cycles
system.cpu.dcache.demand_mshr_miss_rate::.cpu.data     0.072198                       # mshr miss rate for demand accesses
system.cpu.dcache.demand_mshr_miss_rate::total     0.072198                       # mshr miss rate for demand accesses
system.cpu.dcache.overall_mshr_miss_rate::.cpu.data     0.072198                       # mshr miss rate for overall accesses
system.cpu.dcache.overall_mshr_miss_rate::total     0.072198                       # mshr miss rate for overall accesses
system.cpu.dcache.demand_avg_mshr_miss_latency::.cpu.data 106581.438937                       # average overall mshr miss latency
system.cpu.dcache.demand_avg_mshr_miss_latency::total 106581.438937                       # average overall mshr miss latency
system.cpu.dcache.overall_avg_mshr_miss_latency::.cpu.data 106581.289422                       # average overall mshr miss latency
system.cpu.dcache.overall_avg_mshr_miss_latency::total 106581.289422                       # average overall mshr miss latency
system.cpu.dcache.replacements                 328335                       # number of replacements
system.cpu.dcache.ReadReq_hits::.cpu.data      3094647                       # number of ReadReq hits
system.cpu.dcache.ReadReq_hits::total         3094647                       # number of ReadReq hits
system.cpu.dcache.ReadReq_misses::.cpu.data          338                       # number of ReadReq misses
system.cpu.dcache.ReadReq_misses::total           338                       # number of ReadReq misses
system.cpu.dcache.ReadReq_miss_latency::.cpu.data     19716000                       # number of ReadReq miss cycles
system.cpu.dcache.ReadReq_miss_latency::total     19716000                       # number of ReadReq miss cycles
system.cpu.dcache.ReadReq_accesses::.cpu.data      3094985                       # number of ReadReq accesses(hits+misses)
system.cpu.dcache.ReadReq_accesses::total      3094985                       # number of ReadReq accesses(hits+misses)
system.cpu.dcache.ReadReq_miss_rate::.cpu.data     0.000109                       # miss rate for ReadReq accesses
system.cpu.dcache.ReadReq_miss_rate::total     0.000109                       # miss rate for ReadReq accesses
system.cpu.dcache.ReadReq_avg_miss_latency::.cpu.data 58331.360947                       # average ReadReq miss latency
system.cpu.dcache.ReadReq_avg_miss_latency::total 58331.360947                       # average ReadReq miss latency
system.cpu.dcache.ReadReq_mshr_hits::.cpu.data          219                       # number of ReadReq MSHR hits
system.cpu.dcache.ReadReq_mshr_hits::total          219                       # number of ReadReq MSHR hits
system.cpu.dcache.ReadReq_mshr_misses::.cpu.data          119                       # number of ReadReq MSHR misses
system.cpu.dcache.ReadReq_mshr_misses::total          119                       # number of ReadReq MSHR misses
system.cpu.dcache.ReadReq_mshr_miss_latency::.cpu.data      8317000                       # number of ReadReq MSHR miss cycles
system.cpu.dcache.ReadReq_mshr_miss_latency::total      8317000                       # number of ReadReq MSHR miss cycles
system.cpu.dcache.ReadReq_mshr_miss_rate::.cpu.data     0.000038                       # mshr miss rate for ReadReq accesses
system.cpu.dcache.ReadReq_mshr_miss_rate::total     0.000038                       # mshr miss rate for ReadReq accesses
system.cpu.dcache.ReadReq_avg_mshr_miss_latency::.cpu.data 69890.756303                       # average ReadReq mshr miss latency
system.cpu.dcache.ReadReq_avg_mshr_miss_latency::total 69890.756303                       # average ReadReq mshr miss latency
system.cpu.dcache.WriteReq_hits::.cpu.data         6426                       # number of WriteReq hits
system.cpu.dcache.WriteReq_hits::total           6426                       # number of WriteReq hits
system.cpu.dcache.WriteReq_misses::.cpu.data      1457642                       # number of WriteReq misses
system.cpu.dcache.WriteReq_misses::total      1457642                       # number of WriteReq misses
system.cpu.dcache.WriteReq_miss_latency::.cpu.data 127511331741                       # number of WriteReq miss cycles
system.cpu.dcache.WriteReq_miss_latency::total 127511331741                       # number of WriteReq miss cycles
system.cpu.dcache.WriteReq_accesses::.cpu.data      1464068                       # number of WriteReq accesses(hits+misses)
system.cpu.dcache.WriteReq_accesses::total      1464068                       # number of WriteReq accesses(hits+misses)
system.cpu.dcache.WriteReq_miss_rate::.cpu.data     0.995611                       # miss rate for WriteReq accesses
system.cpu.dcache.WriteReq_miss_rate::total     0.995611                       # miss rate for WriteReq accesses
system.cpu.dcache.WriteReq_avg_miss_latency::.cpu.data 87477.811247                       # average WriteReq miss latency
system.cpu.dcache.WriteReq_avg_miss_latency::total 87477.811247                       # average WriteReq miss latency
system.cpu.dcache.WriteReq_mshr_hits::.cpu.data      1131227                       # number of WriteReq MSHR hits
system.cpu.dcache.WriteReq_mshr_hits::total      1131227                       # number of WriteReq MSHR hits
system.cpu.dcache.WriteReq_mshr_misses::.cpu.data       326415                       # number of WriteReq MSHR misses
system.cpu.dcache.WriteReq_mshr_misses::total       326415                       # number of WriteReq MSHR misses
system.cpu.dcache.WriteReq_mshr_miss_latency::.cpu.data  35005603494                       # number of WriteReq MSHR miss cycles
system.cpu.dcache.WriteReq_mshr_miss_latency::total  35005603494                       # number of WriteReq MSHR miss cycles
system.cpu.dcache.WriteReq_mshr_miss_rate::.cpu.data     0.222951                       # mshr miss rate for WriteReq accesses
system.cpu.dcache.WriteReq_mshr_miss_rate::total     0.222951                       # mshr miss rate for WriteReq accesses
system.cpu.dcache.WriteReq_avg_mshr_miss_latency::.cpu.data 107242.631295                       # average WriteReq mshr miss latency
system.cpu.dcache.WriteReq_avg_mshr_miss_latency::total 107242.631295                       # average WriteReq mshr miss latency
system.cpu.dcache.SoftPFReq_hits::.cpu.data            4                       # number of SoftPFReq hits
system.cpu.dcache.SoftPFReq_hits::total             4                       # number of SoftPFReq hits
system.cpu.dcache.SoftPFReq_misses::.cpu.data            3                       # number of SoftPFReq misses
system.cpu.dcache.SoftPFReq_misses::total            3                       # number of SoftPFReq misses
system.cpu.dcache.SoftPFReq_accesses::.cpu.data            7                       # number of SoftPFReq accesses(hits+misses)
system.cpu.dcache.SoftPFReq_accesses::total            7                       # number of SoftPFReq accesses(hits+misses)
system.cpu.dcache.SoftPFReq_miss_rate::.cpu.data     0.428571                       # miss rate for SoftPFReq accesses
system.cpu.dcache.SoftPFReq_miss_rate::total     0.428571                       # miss rate for SoftPFReq accesses
system.cpu.dcache.SoftPFReq_mshr_misses::.cpu.data            3                       # number of SoftPFReq MSHR misses
system.cpu.dcache.SoftPFReq_mshr_misses::total            3                       # number of SoftPFReq MSHR misses
system.cpu.dcache.SoftPFReq_mshr_miss_latency::.cpu.data       270500                       # number of SoftPFReq MSHR miss cycles
system.cpu.dcache.SoftPFReq_mshr_miss_latency::total       270500                       # number of SoftPFReq MSHR miss cycles
system.cpu.dcache.SoftPFReq_mshr_miss_rate::.cpu.data     0.428571                       # mshr miss rate for SoftPFReq accesses
system.cpu.dcache.SoftPFReq_mshr_miss_rate::total     0.428571                       # mshr miss rate for SoftPFReq accesses
system.cpu.dcache.SoftPFReq_avg_mshr_miss_latency::.cpu.data 90166.666667                       # average SoftPFReq mshr miss latency
system.cpu.dcache.SoftPFReq_avg_mshr_miss_latency::total 90166.666667                       # average SoftPFReq mshr miss latency
system.cpu.dcache.WriteLineReq_misses::.cpu.data         2823                       # number of WriteLineReq misses
system.cpu.dcache.WriteLineReq_misses::total         2823                       # number of WriteLineReq misses
system.cpu.dcache.WriteLineReq_miss_latency::.cpu.data     92245490                       # number of WriteLineReq miss cycles
system.cpu.dcache.WriteLineReq_miss_latency::total     92245490                       # number of WriteLineReq miss cycles
system.cpu.dcache.WriteLineReq_accesses::.cpu.data         2823                       # number of WriteLineReq accesses(hits+misses)
system.cpu.dcache.WriteLineReq_accesses::total         2823                       # number of WriteLineReq accesses(hits+misses)
system.cpu.dcache.WriteLineReq_miss_rate::.cpu.data            1                       # miss rate for WriteLineReq accesses
system.cpu.dcache.WriteLineReq_miss_rate::total            1                       # miss rate for WriteLineReq accesses
system.cpu.dcache.WriteLineReq_avg_miss_latency::.cpu.data 32676.404534                       # average WriteLineReq miss latency
system.cpu.dcache.WriteLineReq_avg_miss_latency::total 32676.404534                       # average WriteLineReq miss latency
system.cpu.dcache.WriteLineReq_mshr_misses::.cpu.data         2823                       # number of WriteLineReq MSHR misses
system.cpu.dcache.WriteLineReq_mshr_misses::total         2823                       # number of WriteLineReq MSHR misses
system.cpu.dcache.WriteLineReq_mshr_miss_latency::.cpu.data     89422490                       # number of WriteLineReq MSHR miss cycles
system.cpu.dcache.WriteLineReq_mshr_miss_latency::total     89422490                       # number of WriteLineReq MSHR miss cycles
system.cpu.dcache.WriteLineReq_mshr_miss_rate::.cpu.data            1                       # mshr miss rate for WriteLineReq accesses
system.cpu.dcache.WriteLineReq_mshr_miss_rate::total            1                       # mshr miss rate for WriteLineReq accesses
system.cpu.dcache.WriteLineReq_avg_mshr_miss_latency::.cpu.data 31676.404534                       # average WriteLineReq mshr miss latency
system.cpu.dcache.WriteLineReq_avg_mshr_miss_latency::total 31676.404534                       # average WriteLineReq mshr miss latency
system.cpu.dcache.LoadLockedReq_hits::.cpu.data           18                       # number of LoadLockedReq hits
system.cpu.dcache.LoadLockedReq_hits::total           18                       # number of LoadLockedReq hits
system.cpu.dcache.LoadLockedReq_accesses::.cpu.data           18                       # number of LoadLockedReq accesses(hits+misses)
system.cpu.dcache.LoadLockedReq_accesses::total           18                       # number of LoadLockedReq accesses(hits+misses)
system.cpu.dcache.StoreCondReq_hits::.cpu.data           16                       # number of StoreCondReq hits
system.cpu.dcache.StoreCondReq_hits::total           16                       # number of StoreCondReq hits
system.cpu.dcache.StoreCondReq_accesses::.cpu.data           16                       # number of StoreCondReq accesses(hits+misses)
system.cpu.dcache.StoreCondReq_accesses::total           16                       # number of StoreCondReq accesses(hits+misses)
system.cpu.dcache.power_state.pwrStateResidencyTicks::UNDEFINED   9302987500                       # Cumulative time (in ticks) in various power states
system.cpu.dcache.tags.tagsinuse          1021.601025                       # Cycle average of tags in use
system.cpu.dcache.tags.total_refs             3430470                       # Total number of references to valid blocks.
system.cpu.dcache.tags.sampled_refs            329359                       # Sample count of references to valid blocks.
system.cpu.dcache.tags.avg_refs             10.415595                       # Average number of references to valid blocks.
system.cpu.dcache.tags.warmup_cycle            176500                       # Cycle when the warmup percentage was hit.
system.cpu.dcache.tags.occ_blocks::.cpu.data  1021.601025                       # Average occupied blocks per requestor
system.cpu.dcache.tags.occ_percent::.cpu.data     0.997657                       # Average percentage of cache occupancy
system.cpu.dcache.tags.occ_percent::total     0.997657                       # Average percentage of cache occupancy
system.cpu.dcache.tags.occ_task_id_blocks::1024         1024                       # Occupied blocks per task id
system.cpu.dcache.tags.age_task_id_blocks_1024::0          344                       # Occupied blocks per task id
system.cpu.dcache.tags.age_task_id_blocks_1024::1          679                       # Occupied blocks per task id
system.cpu.dcache.tags.age_task_id_blocks_1024::3            1                       # Occupied blocks per task id
system.cpu.dcache.tags.occ_task_id_percent::1024            1                       # Percentage of cache occupancy per task id
system.cpu.dcache.tags.tag_accesses           9453193                       # Number of tag accesses
system.cpu.dcache.tags.data_accesses          9453193                       # Number of data accesses
system.cpu.dcache.tags.power_state.pwrStateResidencyTicks::UNDEFINED   9302987500                       # Cumulative time (in ticks) in various power states
system.cpu.power_state.pwrStateResidencyTicks::ON   9302987500                       # Cumulative time (in ticks) in various power states

---------- End Simulation Statistics   ----------
