
---------- Begin Simulation Statistics ----------
final_tick                                 5923635500                       # Number of ticks from beginning of simulation (restored from checkpoints and never reset)
host_inst_rate                                  83683                       # Simulator instruction rate (inst/s)
host_mem_usage                                 870120                       # Number of bytes of host memory used
host_op_rate                                    95212                       # Simulator op (including micro ops) rate (op/s)
host_seconds                                   119.50                       # Real time elapsed on the host
host_tick_rate                               49570412                       # Simulator tick rate (ticks/s)
sim_freq                                 1000000000000                       # Frequency of simulated ticks
sim_insts                                    10000004                       # Number of instructions simulated
sim_ops                                      11377757                       # Number of ops (including micro ops) simulated
sim_seconds                                  0.005924                       # Number of seconds simulated
sim_ticks                                  5923635500                       # Number of ticks simulated
system.cpu.branchPred.BTBCorrect                    0                       # Number of correct BTB predictions (this stat may not work properly.
system.cpu.branchPred.BTBHitPct             99.835526                       # BTB Hit Percentage
system.cpu.branchPred.BTBHits                 1030681                       # Number of BTB hits
system.cpu.branchPred.BTBLookups              1032379                       # Number of BTB lookups
system.cpu.branchPred.RASInCorrect                  2                       # Number of incorrect RAS predictions.
system.cpu.branchPred.condIncorrect             33679                       # Number of conditional branches incorrect
system.cpu.branchPred.condPredicted           1489419                       # Number of conditional branches predicted
system.cpu.branchPred.indirectHits                 77                       # Number of indirect target hits.
system.cpu.branchPred.indirectLookups             339                       # Number of indirect predictor lookups.
system.cpu.branchPred.indirectMisses              262                       # Number of indirect misses.
system.cpu.branchPred.lookups                 1854292                       # Number of BP lookups
system.cpu.branchPred.usedRAS                  154813                       # Number of times the RAS was used to get a target.
system.cpu.branchPredindirectMispredicted           91                       # Number of mispredicted indirect branches.
system.cpu.cc_regfile_reads                   2990880                       # number of cc regfile reads
system.cpu.cc_regfile_writes                  2996596                       # number of cc regfile writes
system.cpu.commit.amos                              0                       # Number of atomic instructions committed
system.cpu.commit.branchMispredicts             33243                       # The number of times a branch was mispredicted
system.cpu.commit.branches                    1493731                       # Number of branches committed
system.cpu.commit.bw_lim_events                825069                       # number cycles where commit BW limit reached
system.cpu.commit.commitNonSpecStalls             162                       # The number of times commit has been forced to stall to communicate backwards
system.cpu.commit.commitSquashedInsts         1866423                       # The number of squashed insts skipped by commit
system.cpu.commit.committedInsts             10030360                       # Number of instructions committed
system.cpu.commit.committedOps               11408113                       # Number of ops (including micro ops) committed
system.cpu.commit.committed_per_cycle::samples     11024289                       # Number of insts commited each cycle
system.cpu.commit.committed_per_cycle::mean     1.034816                       # Number of insts commited each cycle
system.cpu.commit.committed_per_cycle::stdev     2.297534                       # Number of insts commited each cycle
system.cpu.commit.committed_per_cycle::underflows            0      0.00%      0.00% # Number of insts commited each cycle
system.cpu.commit.committed_per_cycle::0      8139060     73.83%     73.83% # Number of insts commited each cycle
system.cpu.commit.committed_per_cycle::1      1010302      9.16%     82.99% # Number of insts commited each cycle
system.cpu.commit.committed_per_cycle::2       318529      2.89%     85.88% # Number of insts commited each cycle
system.cpu.commit.committed_per_cycle::3       251539      2.28%     88.16% # Number of insts commited each cycle
system.cpu.commit.committed_per_cycle::4       220976      2.00%     90.17% # Number of insts commited each cycle
system.cpu.commit.committed_per_cycle::5        99434      0.90%     91.07% # Number of insts commited each cycle
system.cpu.commit.committed_per_cycle::6        91150      0.83%     91.90% # Number of insts commited each cycle
system.cpu.commit.committed_per_cycle::7        68230      0.62%     92.52% # Number of insts commited each cycle
system.cpu.commit.committed_per_cycle::8       825069      7.48%    100.00% # Number of insts commited each cycle
system.cpu.commit.committed_per_cycle::overflows            0      0.00%    100.00% # Number of insts commited each cycle
system.cpu.commit.committed_per_cycle::min_value            0                       # Number of insts commited each cycle
system.cpu.commit.committed_per_cycle::max_value            8                       # Number of insts commited each cycle
system.cpu.commit.committed_per_cycle::total     11024289                       # Number of insts commited each cycle
system.cpu.commit.fp_insts                          0                       # Number of committed floating point instructions.
system.cpu.commit.function_calls               109864                       # Number of function calls committed.
system.cpu.commit.int_insts                  10459674                       # Number of committed integer instructions.
system.cpu.commit.loads                       2765063                       # Number of loads committed
system.cpu.commit.membars                          71                       # Number of memory barriers committed
system.cpu.commit.op_class_0::No_OpClass            4      0.00%      0.00% # Class of committed instruction
system.cpu.commit.op_class_0::IntAlu          6770580     59.35%     59.35% # Class of committed instruction
system.cpu.commit.op_class_0::IntMult          207714      1.82%     61.17% # Class of committed instruction
system.cpu.commit.op_class_0::IntDiv                3      0.00%     61.17% # Class of committed instruction
system.cpu.commit.op_class_0::FloatAdd          20205      0.18%     61.35% # Class of committed instruction
system.cpu.commit.op_class_0::FloatCmp              1      0.00%     61.35% # Class of committed instruction
system.cpu.commit.op_class_0::FloatCvt          37098      0.33%     61.67% # Class of committed instruction
system.cpu.commit.op_class_0::FloatMult            10      0.00%     61.67% # Class of committed instruction
system.cpu.commit.op_class_0::FloatMultAcc           17      0.00%     61.67% # Class of committed instruction
system.cpu.commit.op_class_0::FloatDiv           3316      0.03%     61.70% # Class of committed instruction
system.cpu.commit.op_class_0::FloatMisc         20209      0.18%     61.88% # Class of committed instruction
system.cpu.commit.op_class_0::FloatSqrt             0      0.00%     61.88% # Class of committed instruction
system.cpu.commit.op_class_0::SimdAdd              18      0.00%     61.88% # Class of committed instruction
system.cpu.commit.op_class_0::SimdAddAcc            0      0.00%     61.88% # Class of committed instruction
system.cpu.commit.op_class_0::SimdAlu              18      0.00%     61.88% # Class of committed instruction
system.cpu.commit.op_class_0::SimdCmp              16      0.00%     61.88% # Class of committed instruction
system.cpu.commit.op_class_0::SimdCvt               4      0.00%     61.88% # Class of committed instruction
system.cpu.commit.op_class_0::SimdMisc             16      0.00%     61.88% # Class of committed instruction
system.cpu.commit.op_class_0::SimdMult              0      0.00%     61.88% # Class of committed instruction
system.cpu.commit.op_class_0::SimdMultAcc            0      0.00%     61.88% # Class of committed instruction
system.cpu.commit.op_class_0::SimdShift             0      0.00%     61.88% # Class of committed instruction
system.cpu.commit.op_class_0::SimdShiftAcc            0      0.00%     61.88% # Class of committed instruction
system.cpu.commit.op_class_0::SimdDiv               0      0.00%     61.88% # Class of committed instruction
system.cpu.commit.op_class_0::SimdSqrt              0      0.00%     61.88% # Class of committed instruction
system.cpu.commit.op_class_0::SimdFloatAdd            0      0.00%     61.88% # Class of committed instruction
system.cpu.commit.op_class_0::SimdFloatAlu            0      0.00%     61.88% # Class of committed instruction
system.cpu.commit.op_class_0::SimdFloatCmp            0      0.00%     61.88% # Class of committed instruction
system.cpu.commit.op_class_0::SimdFloatCvt            0      0.00%     61.88% # Class of committed instruction
system.cpu.commit.op_class_0::SimdFloatDiv            0      0.00%     61.88% # Class of committed instruction
system.cpu.commit.op_class_0::SimdFloatMisc            0      0.00%     61.88% # Class of committed instruction
system.cpu.commit.op_class_0::SimdFloatMult            0      0.00%     61.88% # Class of committed instruction
system.cpu.commit.op_class_0::SimdFloatMultAcc            0      0.00%     61.88% # Class of committed instruction
system.cpu.commit.op_class_0::SimdFloatSqrt            0      0.00%     61.88% # Class of committed instruction
system.cpu.commit.op_class_0::SimdReduceAdd            0      0.00%     61.88% # Class of committed instruction
system.cpu.commit.op_class_0::SimdReduceAlu            0      0.00%     61.88% # Class of committed instruction
system.cpu.commit.op_class_0::SimdReduceCmp            0      0.00%     61.88% # Class of committed instruction
system.cpu.commit.op_class_0::SimdFloatReduceAdd            0      0.00%     61.88% # Class of committed instruction
system.cpu.commit.op_class_0::SimdFloatReduceCmp            0      0.00%     61.88% # Class of committed instruction
system.cpu.commit.op_class_0::SimdAes               0      0.00%     61.88% # Class of committed instruction
system.cpu.commit.op_class_0::SimdAesMix            0      0.00%     61.88% # Class of committed instruction
system.cpu.commit.op_class_0::SimdSha1Hash            0      0.00%     61.88% # Class of committed instruction
system.cpu.commit.op_class_0::SimdSha1Hash2            0      0.00%     61.88% # Class of committed instruction
system.cpu.commit.op_class_0::SimdSha256Hash            0      0.00%     61.88% # Class of committed instruction
system.cpu.commit.op_class_0::SimdSha256Hash2            0      0.00%     61.88% # Class of committed instruction
system.cpu.commit.op_class_0::SimdShaSigma2            0      0.00%     61.88% # Class of committed instruction
system.cpu.commit.op_class_0::SimdShaSigma3            0      0.00%     61.88% # Class of committed instruction
system.cpu.commit.op_class_0::SimdPredAlu            0      0.00%     61.88% # Class of committed instruction
system.cpu.commit.op_class_0::MemRead         2765063     24.24%     86.12% # Class of committed instruction
system.cpu.commit.op_class_0::MemWrite        1583821     13.88%    100.00% # Class of committed instruction
system.cpu.commit.op_class_0::FloatMemRead            0      0.00%    100.00% # Class of committed instruction
system.cpu.commit.op_class_0::FloatMemWrite            0      0.00%    100.00% # Class of committed instruction
system.cpu.commit.op_class_0::IprAccess             0      0.00%    100.00% # Class of committed instruction
system.cpu.commit.op_class_0::InstPrefetch            0      0.00%    100.00% # Class of committed instruction
system.cpu.commit.op_class_0::total          11408113                       # Class of committed instruction
system.cpu.commit.refs                        4348884                       # Number of memory references committed
system.cpu.commit.swp_count                         0                       # Number of s/w prefetches committed
system.cpu.commit.vec_insts                     81296                       # Number of committed Vector instructions.
system.cpu.committedInsts                    10000004                       # Number of Instructions Simulated
system.cpu.committedOps                      11377757                       # Number of Ops (including micro ops) Simulated
system.cpu.cpi                               1.184727                       # CPI: Cycles Per Instruction
system.cpu.cpi_total                         1.184727                       # CPI: Total CPI of All Threads
system.cpu.decode.BlockedCycles               5477152                       # Number of cycles decode is blocked
system.cpu.decode.BranchMispred                   455                       # Number of times decode detected a branch misprediction
system.cpu.decode.BranchResolved              1001436                       # Number of times decode resolved a branch
system.cpu.decode.DecodedInsts               13592498                       # Number of instructions handled by decode
system.cpu.decode.IdleCycles                  3508461                       # Number of cycles decode is idle
system.cpu.decode.RunCycles                   2026429                       # Number of cycles decode is running
system.cpu.decode.SquashCycles                  36102                       # Number of cycles decode is squashing
system.cpu.decode.SquashedInsts                  1501                       # Number of squashed instructions handled by decode
system.cpu.decode.UnblockCycles                227094                       # Number of cycles decode is unblocking
system.cpu.dtb.accesses                             0                       # DTB accesses
system.cpu.dtb.align_faults                         0                       # Number of TLB faults due to alignment restrictions
system.cpu.dtb.domain_faults                        0                       # Number of TLB faults due to domain restrictions
system.cpu.dtb.flush_entries                        0                       # Number of entries that have been flushed from TLB
system.cpu.dtb.flush_tlb                            2                       # Number of times complete TLB was flushed
system.cpu.dtb.flush_tlb_asid                       0                       # Number of times TLB was flushed by ASID
system.cpu.dtb.flush_tlb_mva                        0                       # Number of times TLB was flushed by MVA
system.cpu.dtb.flush_tlb_mva_asid                   0                       # Number of times TLB was flushed by MVA & ASID
system.cpu.dtb.hits                                 0                       # DTB hits
system.cpu.dtb.inst_accesses                        0                       # ITB inst accesses
system.cpu.dtb.inst_hits                            0                       # ITB inst hits
system.cpu.dtb.inst_misses                          0                       # ITB inst misses
system.cpu.dtb.misses                               0                       # DTB misses
system.cpu.dtb.perms_faults                         0                       # Number of TLB faults due to permissions restrictions
system.cpu.dtb.prefetch_faults                      0                       # Number of TLB faults due to prefetch
system.cpu.dtb.read_accesses                        0                       # DTB read accesses
system.cpu.dtb.read_hits                            0                       # DTB read hits
system.cpu.dtb.read_misses                          0                       # DTB read misses
system.cpu.dtb.stage2_mmu.stage2_tlb.accesses            0                       # DTB accesses
system.cpu.dtb.stage2_mmu.stage2_tlb.align_faults            0                       # Number of TLB faults due to alignment restrictions
system.cpu.dtb.stage2_mmu.stage2_tlb.domain_faults            0                       # Number of TLB faults due to domain restrictions
system.cpu.dtb.stage2_mmu.stage2_tlb.flush_entries            0                       # Number of entries that have been flushed from TLB
system.cpu.dtb.stage2_mmu.stage2_tlb.flush_tlb            0                       # Number of times complete TLB was flushed
system.cpu.dtb.stage2_mmu.stage2_tlb.flush_tlb_asid            0                       # Number of times TLB was flushed by ASID
system.cpu.dtb.stage2_mmu.stage2_tlb.flush_tlb_mva            0                       # Number of times TLB was flushed by MVA
system.cpu.dtb.stage2_mmu.stage2_tlb.flush_tlb_mva_asid            0                       # Number of times TLB was flushed by MVA & ASID
system.cpu.dtb.stage2_mmu.stage2_tlb.hits            0                       # DTB hits
system.cpu.dtb.stage2_mmu.stage2_tlb.inst_accesses            0                       # ITB inst accesses
system.cpu.dtb.stage2_mmu.stage2_tlb.inst_hits            0                       # ITB inst hits
system.cpu.dtb.stage2_mmu.stage2_tlb.inst_misses            0                       # ITB inst misses
system.cpu.dtb.stage2_mmu.stage2_tlb.misses            0                       # DTB misses
system.cpu.dtb.stage2_mmu.stage2_tlb.perms_faults            0                       # Number of TLB faults due to permissions restrictions
system.cpu.dtb.stage2_mmu.stage2_tlb.prefetch_faults            0                       # Number of TLB faults due to prefetch
system.cpu.dtb.stage2_mmu.stage2_tlb.read_accesses            0                       # DTB read accesses
system.cpu.dtb.stage2_mmu.stage2_tlb.read_hits            0                       # DTB read hits
system.cpu.dtb.stage2_mmu.stage2_tlb.read_misses            0                       # DTB read misses
system.cpu.dtb.stage2_mmu.stage2_tlb.walker.walkRequestOrigin_Requested::Data            0                       # Table walker requests started/completed, data/inst
system.cpu.dtb.stage2_mmu.stage2_tlb.walker.walkRequestOrigin_Requested::Inst            0                       # Table walker requests started/completed, data/inst
system.cpu.dtb.stage2_mmu.stage2_tlb.walker.walkRequestOrigin_Requested::total            0                       # Table walker requests started/completed, data/inst
system.cpu.dtb.stage2_mmu.stage2_tlb.walker.walkRequestOrigin_Completed::Data            0                       # Table walker requests started/completed, data/inst
system.cpu.dtb.stage2_mmu.stage2_tlb.walker.walkRequestOrigin_Completed::Inst            0                       # Table walker requests started/completed, data/inst
system.cpu.dtb.stage2_mmu.stage2_tlb.walker.walkRequestOrigin_Completed::total            0                       # Table walker requests started/completed, data/inst
system.cpu.dtb.stage2_mmu.stage2_tlb.walker.walkRequestOrigin::total            0                       # Table walker requests started/completed, data/inst
system.cpu.dtb.stage2_mmu.stage2_tlb.walker.walks            0                       # Table walker walks requested
system.cpu.dtb.stage2_mmu.stage2_tlb.write_accesses            0                       # DTB write accesses
system.cpu.dtb.stage2_mmu.stage2_tlb.write_hits            0                       # DTB write hits
system.cpu.dtb.stage2_mmu.stage2_tlb.write_misses            0                       # DTB write misses
system.cpu.dtb.walker.walkRequestOrigin_Requested::Data            0                       # Table walker requests started/completed, data/inst
system.cpu.dtb.walker.walkRequestOrigin_Requested::Inst            0                       # Table walker requests started/completed, data/inst
system.cpu.dtb.walker.walkRequestOrigin_Requested::total            0                       # Table walker requests started/completed, data/inst
system.cpu.dtb.walker.walkRequestOrigin_Completed::Data            0                       # Table walker requests started/completed, data/inst
system.cpu.dtb.walker.walkRequestOrigin_Completed::Inst            0                       # Table walker requests started/completed, data/inst
system.cpu.dtb.walker.walkRequestOrigin_Completed::total            0                       # Table walker requests started/completed, data/inst
system.cpu.dtb.walker.walkRequestOrigin::total            0                       # Table walker requests started/completed, data/inst
system.cpu.dtb.walker.walks                         0                       # Table walker walks requested
system.cpu.dtb.write_accesses                       0                       # DTB write accesses
system.cpu.dtb.write_hits                           0                       # DTB write hits
system.cpu.dtb.write_misses                         0                       # DTB write misses
system.cpu.fetch.Branches                     1854292                       # Number of branches that fetch encountered
system.cpu.fetch.CacheLines                   1171156                       # Number of cache lines fetched
system.cpu.fetch.Cycles                       7036401                       # Number of cycles fetch has run and was not squashing or blocked
system.cpu.fetch.IcacheSquashes                 16483                       # Number of outstanding Icache misses that were squashed
system.cpu.fetch.IcacheWaitRetryStallCycles          163                       # Number of stall cycles due to full MSHR
system.cpu.fetch.Insts                       12210782                       # Number of instructions fetch has processed
system.cpu.fetch.MiscStallCycles                   23                       # Number of cycles fetch has spent waiting on interrupts, or bad addresses, or out of MSHRs
system.cpu.fetch.SquashCycles                   73076                       # Number of cycles fetch has spent squashing
system.cpu.fetch.branchRate                  0.156516                       # Number of branch fetches per cycle
system.cpu.fetch.icacheStallCycles            4202113                       # Number of cycles fetch is stalled on an Icache miss
system.cpu.fetch.predictedBranches            1185571                       # Number of branches that fetch has predicted taken
system.cpu.fetch.rate                        1.030683                       # Number of inst fetches per cycle
system.cpu.fetch.rateDist::samples           11275238                       # Number of instructions fetched each cycle (Total)
system.cpu.fetch.rateDist::mean              1.233729                       # Number of instructions fetched each cycle (Total)
system.cpu.fetch.rateDist::stdev             2.579139                       # Number of instructions fetched each cycle (Total)
system.cpu.fetch.rateDist::underflows               0      0.00%      0.00% # Number of instructions fetched each cycle (Total)
system.cpu.fetch.rateDist::0                  8598956     76.26%     76.26% # Number of instructions fetched each cycle (Total)
system.cpu.fetch.rateDist::1                   239367      2.12%     78.39% # Number of instructions fetched each cycle (Total)
system.cpu.fetch.rateDist::2                   476728      4.23%     82.62% # Number of instructions fetched each cycle (Total)
system.cpu.fetch.rateDist::3                   265503      2.35%     84.97% # Number of instructions fetched each cycle (Total)
system.cpu.fetch.rateDist::4                   208844      1.85%     86.82% # Number of instructions fetched each cycle (Total)
system.cpu.fetch.rateDist::5                   169556      1.50%     88.33% # Number of instructions fetched each cycle (Total)
system.cpu.fetch.rateDist::6                    94271      0.84%     89.16% # Number of instructions fetched each cycle (Total)
system.cpu.fetch.rateDist::7                   103634      0.92%     90.08% # Number of instructions fetched each cycle (Total)
system.cpu.fetch.rateDist::8                  1118379      9.92%    100.00% # Number of instructions fetched each cycle (Total)
system.cpu.fetch.rateDist::overflows                0      0.00%    100.00% # Number of instructions fetched each cycle (Total)
system.cpu.fetch.rateDist::min_value                0                       # Number of instructions fetched each cycle (Total)
system.cpu.fetch.rateDist::max_value                8                       # Number of instructions fetched each cycle (Total)
system.cpu.fetch.rateDist::total             11275238                       # Number of instructions fetched each cycle (Total)
system.cpu.icache.prefetcher.num_hwpf_issued       807766                       # number of hwpf issued
system.cpu.icache.prefetcher.pfBufferHit     13501165                       # number of redundant prefetches already in prefetch queue
system.cpu.icache.prefetcher.pfIdentified     15759546                       # number of prefetch candidates identified
system.cpu.icache.prefetcher.pfInCache              0                       # number of redundant prefetches already in cache/mshr dropped
system.cpu.icache.prefetcher.pfRemovedFull        24142                       # number of prefetches dropped due to prefetch queue size
system.cpu.icache.prefetcher.pfSpanPage      81357206                       # number of prefetches that crossed the page
system.cpu.idleCycles                          572034                       # Total number of cycles that the CPU has spent unscheduled due to idling
system.cpu.iew.branchMispredicts                35379                       # Number of branch mispredicts detected at execute
system.cpu.iew.exec_branches                  1629401                       # Number of branches executed
system.cpu.iew.exec_nop                         36441                       # number of nop insts executed
system.cpu.iew.exec_rate                     1.068110                       # Inst execution rate
system.cpu.iew.exec_refs                      4919079                       # number of memory reference insts executed
system.cpu.iew.exec_stores                    1722606                       # Number of stores executed
system.cpu.iew.exec_swp                             0                       # number of swp insts executed
system.cpu.iew.iewBlockCycles                  582041                       # Number of cycles IEW is blocking
system.cpu.iew.iewDispLoadInsts               3241789                       # Number of dispatched load instructions
system.cpu.iew.iewDispNonSpecInsts                194                       # Number of dispatched non-speculative instructions
system.cpu.iew.iewDispSquashedInsts               873                       # Number of squashed instructions skipped by dispatch
system.cpu.iew.iewDispStoreInsts              1820532                       # Number of dispatched store instructions
system.cpu.iew.iewDispatchedInsts            13289764                       # Number of instructions dispatched to IQ
system.cpu.iew.iewExecLoadInsts               3196473                       # Number of load instructions executed
system.cpu.iew.iewExecSquashedInsts             53708                       # Number of squashed instructions skipped in execute
system.cpu.iew.iewExecutedInsts              12654186                       # Number of executed instructions
system.cpu.iew.iewIQFullEvents                   4552                       # Number of times the IQ has become full, causing a stall
system.cpu.iew.iewIdleCycles                        0                       # Number of cycles IEW is idle
system.cpu.iew.iewLSQFullEvents                673223                       # Number of times the LSQ has become full, causing a stall
system.cpu.iew.iewSquashCycles                  36102                       # Number of cycles IEW is squashing
system.cpu.iew.iewUnblockCycles                678025                       # Number of cycles IEW is unblocking
system.cpu.iew.lsq.thread0.blockedLoads             0                       # Number of blocked loads due to partial load-store forwarding
system.cpu.iew.lsq.thread0.cacheBlocked         61602                       # Number of times an access to memory failed due to the cache being blocked
system.cpu.iew.lsq.thread0.forwLoads            29530                       # Number of loads that had data forwarded from stores
system.cpu.iew.lsq.thread0.ignoredResponses          110                       # Number of memory responses ignored because the instruction is squashed
system.cpu.iew.lsq.thread0.invAddrLoads             0                       # Number of loads ignored due to an invalid address
system.cpu.iew.lsq.thread0.invAddrSwpfs             0                       # Number of software prefetches ignored due to an invalid address
system.cpu.iew.lsq.thread0.memOrderViolation          152                       # Number of memory ordering violations
system.cpu.iew.lsq.thread0.rescheduledLoads       160678                       # Number of loads that were rescheduled
system.cpu.iew.lsq.thread0.squashedLoads       476724                       # Number of loads squashed
system.cpu.iew.lsq.thread0.squashedStores       236708                       # Number of stores squashed
system.cpu.iew.memOrderViolationEvents            152                       # Number of memory order violations
system.cpu.iew.predictedNotTakenIncorrect        16712                       # Number of branches that were predicted not taken incorrectly
system.cpu.iew.predictedTakenIncorrect          18667                       # Number of branches that were predicted taken incorrectly
system.cpu.iew.wb_consumers                  12786890                       # num instructions consuming a value
system.cpu.iew.wb_count                      12386021                       # cumulative count of insts written-back
system.cpu.iew.wb_fanout                     0.603390                       # average fanout of values written-back
system.cpu.iew.wb_producers                   7715483                       # num instructions producing a value
system.cpu.iew.wb_rate                       1.045475                       # insts written-back per cycle
system.cpu.iew.wb_sent                       12425220                       # cumulative count of insts sent to commit
system.cpu.int_regfile_reads                 16474040                       # number of integer regfile reads
system.cpu.int_regfile_writes                 9573606                       # number of integer regfile writes
system.cpu.ipc                               0.844077                       # IPC: Instructions Per Cycle
system.cpu.ipc_total                         0.844077                       # IPC: Total IPC of All Threads
system.cpu.iq.FU_type_0::No_OpClass                 6      0.00%      0.00% # Type of FU issued
system.cpu.iq.FU_type_0::IntAlu               7407715     58.29%     58.29% # Type of FU issued
system.cpu.iq.FU_type_0::IntMult               241187      1.90%     60.19% # Type of FU issued
system.cpu.iq.FU_type_0::IntDiv                     3      0.00%     60.19% # Type of FU issued
system.cpu.iq.FU_type_0::FloatAdd               26441      0.21%     60.40% # Type of FU issued
system.cpu.iq.FU_type_0::FloatCmp                   1      0.00%     60.40% # Type of FU issued
system.cpu.iq.FU_type_0::FloatCvt               45062      0.35%     60.75% # Type of FU issued
system.cpu.iq.FU_type_0::FloatMult                 10      0.00%     60.75% # Type of FU issued
system.cpu.iq.FU_type_0::FloatMultAcc              17      0.00%     60.75% # Type of FU issued
system.cpu.iq.FU_type_0::FloatDiv                3805      0.03%     60.78% # Type of FU issued
system.cpu.iq.FU_type_0::FloatMisc              32170      0.25%     61.04% # Type of FU issued
system.cpu.iq.FU_type_0::FloatSqrt                  0      0.00%     61.04% # Type of FU issued
system.cpu.iq.FU_type_0::SimdAdd                   24      0.00%     61.04% # Type of FU issued
system.cpu.iq.FU_type_0::SimdAddAcc                 0      0.00%     61.04% # Type of FU issued
system.cpu.iq.FU_type_0::SimdAlu                   22      0.00%     61.04% # Type of FU issued
system.cpu.iq.FU_type_0::SimdCmp                   23      0.00%     61.04% # Type of FU issued
system.cpu.iq.FU_type_0::SimdCvt                    4      0.00%     61.04% # Type of FU issued
system.cpu.iq.FU_type_0::SimdMisc                  19      0.00%     61.04% # Type of FU issued
system.cpu.iq.FU_type_0::SimdMult                   0      0.00%     61.04% # Type of FU issued
system.cpu.iq.FU_type_0::SimdMultAcc                0      0.00%     61.04% # Type of FU issued
system.cpu.iq.FU_type_0::SimdShift                  0      0.00%     61.04% # Type of FU issued
system.cpu.iq.FU_type_0::SimdShiftAcc               0      0.00%     61.04% # Type of FU issued
system.cpu.iq.FU_type_0::SimdDiv                    0      0.00%     61.04% # Type of FU issued
system.cpu.iq.FU_type_0::SimdSqrt                   0      0.00%     61.04% # Type of FU issued
system.cpu.iq.FU_type_0::SimdFloatAdd               0      0.00%     61.04% # Type of FU issued
system.cpu.iq.FU_type_0::SimdFloatAlu               0      0.00%     61.04% # Type of FU issued
system.cpu.iq.FU_type_0::SimdFloatCmp               0      0.00%     61.04% # Type of FU issued
system.cpu.iq.FU_type_0::SimdFloatCvt               0      0.00%     61.04% # Type of FU issued
system.cpu.iq.FU_type_0::SimdFloatDiv               0      0.00%     61.04% # Type of FU issued
system.cpu.iq.FU_type_0::SimdFloatMisc              0      0.00%     61.04% # Type of FU issued
system.cpu.iq.FU_type_0::SimdFloatMult              0      0.00%     61.04% # Type of FU issued
system.cpu.iq.FU_type_0::SimdFloatMultAcc            0      0.00%     61.04% # Type of FU issued
system.cpu.iq.FU_type_0::SimdFloatSqrt              0      0.00%     61.04% # Type of FU issued
system.cpu.iq.FU_type_0::SimdReduceAdd              0      0.00%     61.04% # Type of FU issued
system.cpu.iq.FU_type_0::SimdReduceAlu              0      0.00%     61.04% # Type of FU issued
system.cpu.iq.FU_type_0::SimdReduceCmp              0      0.00%     61.04% # Type of FU issued
system.cpu.iq.FU_type_0::SimdFloatReduceAdd            0      0.00%     61.04% # Type of FU issued
system.cpu.iq.FU_type_0::SimdFloatReduceCmp            0      0.00%     61.04% # Type of FU issued
system.cpu.iq.FU_type_0::SimdAes                    0      0.00%     61.04% # Type of FU issued
system.cpu.iq.FU_type_0::SimdAesMix                 0      0.00%     61.04% # Type of FU issued
system.cpu.iq.FU_type_0::SimdSha1Hash               0      0.00%     61.04% # Type of FU issued
system.cpu.iq.FU_type_0::SimdSha1Hash2              0      0.00%     61.04% # Type of FU issued
system.cpu.iq.FU_type_0::SimdSha256Hash             0      0.00%     61.04% # Type of FU issued
system.cpu.iq.FU_type_0::SimdSha256Hash2            0      0.00%     61.04% # Type of FU issued
system.cpu.iq.FU_type_0::SimdShaSigma2              0      0.00%     61.04% # Type of FU issued
system.cpu.iq.FU_type_0::SimdShaSigma3              0      0.00%     61.04% # Type of FU issued
system.cpu.iq.FU_type_0::SimdPredAlu                0      0.00%     61.04% # Type of FU issued
system.cpu.iq.FU_type_0::MemRead              3220310     25.34%     86.38% # Type of FU issued
system.cpu.iq.FU_type_0::MemWrite             1731080     13.62%    100.00% # Type of FU issued
system.cpu.iq.FU_type_0::FloatMemRead               0      0.00%    100.00% # Type of FU issued
system.cpu.iq.FU_type_0::FloatMemWrite              0      0.00%    100.00% # Type of FU issued
system.cpu.iq.FU_type_0::IprAccess                  0      0.00%    100.00% # Type of FU issued
system.cpu.iq.FU_type_0::InstPrefetch               0      0.00%    100.00% # Type of FU issued
system.cpu.iq.FU_type_0::total               12707899                       # Type of FU issued
system.cpu.iq.fp_alu_accesses                       0                       # Number of floating point alu accesses
system.cpu.iq.fp_inst_queue_reads                   0                       # Number of floating instruction queue reads
system.cpu.iq.fp_inst_queue_wakeup_accesses            0                       # Number of floating instruction queue wakeup accesses
system.cpu.iq.fp_inst_queue_writes                  0                       # Number of floating instruction queue writes
system.cpu.iq.fu_busy_cnt                      207298                       # FU busy when requested
system.cpu.iq.fu_busy_rate                   0.016313                       # FU busy rate (busy events/executed inst)
system.cpu.iq.fu_full::No_OpClass                   0      0.00%      0.00% # attempts to use FU when none available
system.cpu.iq.fu_full::IntAlu                   38610     18.63%     18.63% # attempts to use FU when none available
system.cpu.iq.fu_full::IntMult                     43      0.02%     18.65% # attempts to use FU when none available
system.cpu.iq.fu_full::IntDiv                       0      0.00%     18.65% # attempts to use FU when none available
system.cpu.iq.fu_full::FloatAdd                     0      0.00%     18.65% # attempts to use FU when none available
system.cpu.iq.fu_full::FloatCmp                     0      0.00%     18.65% # attempts to use FU when none available
system.cpu.iq.fu_full::FloatCvt                     0      0.00%     18.65% # attempts to use FU when none available
system.cpu.iq.fu_full::FloatMult                   16      0.01%     18.65% # attempts to use FU when none available
system.cpu.iq.fu_full::FloatMultAcc                 0      0.00%     18.65% # attempts to use FU when none available
system.cpu.iq.fu_full::FloatDiv                    22      0.01%     18.66% # attempts to use FU when none available
system.cpu.iq.fu_full::FloatMisc                   59      0.03%     18.69% # attempts to use FU when none available
system.cpu.iq.fu_full::FloatSqrt                    0      0.00%     18.69% # attempts to use FU when none available
system.cpu.iq.fu_full::SimdAdd                      0      0.00%     18.69% # attempts to use FU when none available
system.cpu.iq.fu_full::SimdAddAcc                   0      0.00%     18.69% # attempts to use FU when none available
system.cpu.iq.fu_full::SimdAlu                      1      0.00%     18.69% # attempts to use FU when none available
system.cpu.iq.fu_full::SimdCmp                      2      0.00%     18.69% # attempts to use FU when none available
system.cpu.iq.fu_full::SimdCvt                      0      0.00%     18.69% # attempts to use FU when none available
system.cpu.iq.fu_full::SimdMisc                     0      0.00%     18.69% # attempts to use FU when none available
system.cpu.iq.fu_full::SimdMult                     0      0.00%     18.69% # attempts to use FU when none available
system.cpu.iq.fu_full::SimdMultAcc                  0      0.00%     18.69% # attempts to use FU when none available
system.cpu.iq.fu_full::SimdShift                    0      0.00%     18.69% # attempts to use FU when none available
system.cpu.iq.fu_full::SimdShiftAcc                 0      0.00%     18.69% # attempts to use FU when none available
system.cpu.iq.fu_full::SimdDiv                      0      0.00%     18.69% # attempts to use FU when none available
system.cpu.iq.fu_full::SimdSqrt                     0      0.00%     18.69% # attempts to use FU when none available
system.cpu.iq.fu_full::SimdFloatAdd                 0      0.00%     18.69% # attempts to use FU when none available
system.cpu.iq.fu_full::SimdFloatAlu                 0      0.00%     18.69% # attempts to use FU when none available
system.cpu.iq.fu_full::SimdFloatCmp                 0      0.00%     18.69% # attempts to use FU when none available
system.cpu.iq.fu_full::SimdFloatCvt                 0      0.00%     18.69% # attempts to use FU when none available
system.cpu.iq.fu_full::SimdFloatDiv                 0      0.00%     18.69% # attempts to use FU when none available
system.cpu.iq.fu_full::SimdFloatMisc                0      0.00%     18.69% # attempts to use FU when none available
system.cpu.iq.fu_full::SimdFloatMult                0      0.00%     18.69% # attempts to use FU when none available
system.cpu.iq.fu_full::SimdFloatMultAcc             0      0.00%     18.69% # attempts to use FU when none available
system.cpu.iq.fu_full::SimdFloatSqrt                0      0.00%     18.69% # attempts to use FU when none available
system.cpu.iq.fu_full::SimdReduceAdd                0      0.00%     18.69% # attempts to use FU when none available
system.cpu.iq.fu_full::SimdReduceAlu                0      0.00%     18.69% # attempts to use FU when none available
system.cpu.iq.fu_full::SimdReduceCmp                0      0.00%     18.69% # attempts to use FU when none available
system.cpu.iq.fu_full::SimdFloatReduceAdd            0      0.00%     18.69% # attempts to use FU when none available
system.cpu.iq.fu_full::SimdFloatReduceCmp            0      0.00%     18.69% # attempts to use FU when none available
system.cpu.iq.fu_full::SimdAes                      0      0.00%     18.69% # attempts to use FU when none available
system.cpu.iq.fu_full::SimdAesMix                   0      0.00%     18.69% # attempts to use FU when none available
system.cpu.iq.fu_full::SimdSha1Hash                 0      0.00%     18.69% # attempts to use FU when none available
system.cpu.iq.fu_full::SimdSha1Hash2                0      0.00%     18.69% # attempts to use FU when none available
system.cpu.iq.fu_full::SimdSha256Hash               0      0.00%     18.69% # attempts to use FU when none available
system.cpu.iq.fu_full::SimdSha256Hash2              0      0.00%     18.69% # attempts to use FU when none available
system.cpu.iq.fu_full::SimdShaSigma2                0      0.00%     18.69% # attempts to use FU when none available
system.cpu.iq.fu_full::SimdShaSigma3                0      0.00%     18.69% # attempts to use FU when none available
system.cpu.iq.fu_full::SimdPredAlu                  0      0.00%     18.69% # attempts to use FU when none available
system.cpu.iq.fu_full::MemRead                 119386     57.59%     76.29% # attempts to use FU when none available
system.cpu.iq.fu_full::MemWrite                 49159     23.71%    100.00% # attempts to use FU when none available
system.cpu.iq.fu_full::FloatMemRead                 0      0.00%    100.00% # attempts to use FU when none available
system.cpu.iq.fu_full::FloatMemWrite                0      0.00%    100.00% # attempts to use FU when none available
system.cpu.iq.fu_full::IprAccess                    0      0.00%    100.00% # attempts to use FU when none available
system.cpu.iq.fu_full::InstPrefetch                 0      0.00%    100.00% # attempts to use FU when none available
system.cpu.iq.int_alu_accesses               12806837                       # Number of integer alu accesses
system.cpu.iq.int_inst_queue_reads           36696174                       # Number of integer instruction queue reads
system.cpu.iq.int_inst_queue_wakeup_accesses     12279192                       # Number of integer instruction queue wakeup accesses
system.cpu.iq.int_inst_queue_writes          14955470                       # Number of integer instruction queue writes
system.cpu.iq.iqInstsAdded                   13253129                       # Number of instructions added to the IQ (excludes non-spec)
system.cpu.iq.iqInstsIssued                  12707899                       # Number of instructions issued
system.cpu.iq.iqNonSpecInstsAdded                 194                       # Number of non-speculative instructions added to the IQ
system.cpu.iq.iqSquashedInstsExamined         1875543                       # Number of squashed instructions iterated over during squash; mainly for profiling
system.cpu.iq.iqSquashedInstsIssued             14522                       # Number of squashed instructions issued
system.cpu.iq.iqSquashedNonSpecRemoved             32                       # Number of squashed non-spec instructions that were removed
system.cpu.iq.iqSquashedOperandsExamined      1596755                       # Number of squashed operands that are examined and possibly removed from graph
system.cpu.iq.issued_per_cycle::samples      11275238                       # Number of insts issued each cycle
system.cpu.iq.issued_per_cycle::mean         1.127063                       # Number of insts issued each cycle
system.cpu.iq.issued_per_cycle::stdev        2.030202                       # Number of insts issued each cycle
system.cpu.iq.issued_per_cycle::underflows            0      0.00%      0.00% # Number of insts issued each cycle
system.cpu.iq.issued_per_cycle::0             7635517     67.72%     67.72% # Number of insts issued each cycle
system.cpu.iq.issued_per_cycle::1              817986      7.25%     74.97% # Number of insts issued each cycle
system.cpu.iq.issued_per_cycle::2              658787      5.84%     80.82% # Number of insts issued each cycle
system.cpu.iq.issued_per_cycle::3              563288      5.00%     85.81% # Number of insts issued each cycle
system.cpu.iq.issued_per_cycle::4              457690      4.06%     89.87% # Number of insts issued each cycle
system.cpu.iq.issued_per_cycle::5              422019      3.74%     93.61% # Number of insts issued each cycle
system.cpu.iq.issued_per_cycle::6              296341      2.63%     96.24% # Number of insts issued each cycle
system.cpu.iq.issued_per_cycle::7              225306      2.00%     98.24% # Number of insts issued each cycle
system.cpu.iq.issued_per_cycle::8              198304      1.76%    100.00% # Number of insts issued each cycle
system.cpu.iq.issued_per_cycle::overflows            0      0.00%    100.00% # Number of insts issued each cycle
system.cpu.iq.issued_per_cycle::min_value            0                       # Number of insts issued each cycle
system.cpu.iq.issued_per_cycle::max_value            8                       # Number of insts issued each cycle
system.cpu.iq.issued_per_cycle::total        11275238                       # Number of insts issued each cycle
system.cpu.iq.rate                           1.072643                       # Inst issue rate
system.cpu.iq.vec_alu_accesses                 108354                       # Number of vector alu accesses
system.cpu.iq.vec_inst_queue_reads             216677                       # Number of vector instruction queue reads
system.cpu.iq.vec_inst_queue_wakeup_accesses       106829                       # Number of vector instruction queue wakeup accesses
system.cpu.iq.vec_inst_queue_writes            173544                       # Number of vector instruction queue writes
system.cpu.itb.accesses                             0                       # DTB accesses
system.cpu.itb.align_faults                         0                       # Number of TLB faults due to alignment restrictions
system.cpu.itb.domain_faults                        0                       # Number of TLB faults due to domain restrictions
system.cpu.itb.flush_entries                        0                       # Number of entries that have been flushed from TLB
system.cpu.itb.flush_tlb                            2                       # Number of times complete TLB was flushed
system.cpu.itb.flush_tlb_asid                       0                       # Number of times TLB was flushed by ASID
system.cpu.itb.flush_tlb_mva                        0                       # Number of times TLB was flushed by MVA
system.cpu.itb.flush_tlb_mva_asid                   0                       # Number of times TLB was flushed by MVA & ASID
system.cpu.itb.hits                                 0                       # DTB hits
system.cpu.itb.inst_accesses                        0                       # ITB inst accesses
system.cpu.itb.inst_hits                            0                       # ITB inst hits
system.cpu.itb.inst_misses                          0                       # ITB inst misses
system.cpu.itb.misses                               0                       # DTB misses
system.cpu.itb.perms_faults                         0                       # Number of TLB faults due to permissions restrictions
system.cpu.itb.prefetch_faults                      0                       # Number of TLB faults due to prefetch
system.cpu.itb.read_accesses                        0                       # DTB read accesses
system.cpu.itb.read_hits                            0                       # DTB read hits
system.cpu.itb.read_misses                          0                       # DTB read misses
system.cpu.itb.stage2_mmu.stage2_tlb.accesses            0                       # DTB accesses
system.cpu.itb.stage2_mmu.stage2_tlb.align_faults            0                       # Number of TLB faults due to alignment restrictions
system.cpu.itb.stage2_mmu.stage2_tlb.domain_faults            0                       # Number of TLB faults due to domain restrictions
system.cpu.itb.stage2_mmu.stage2_tlb.flush_entries            0                       # Number of entries that have been flushed from TLB
system.cpu.itb.stage2_mmu.stage2_tlb.flush_tlb            0                       # Number of times complete TLB was flushed
system.cpu.itb.stage2_mmu.stage2_tlb.flush_tlb_asid            0                       # Number of times TLB was flushed by ASID
system.cpu.itb.stage2_mmu.stage2_tlb.flush_tlb_mva            0                       # Number of times TLB was flushed by MVA
system.cpu.itb.stage2_mmu.stage2_tlb.flush_tlb_mva_asid            0                       # Number of times TLB was flushed by MVA & ASID
system.cpu.itb.stage2_mmu.stage2_tlb.hits            0                       # DTB hits
system.cpu.itb.stage2_mmu.stage2_tlb.inst_accesses            0                       # ITB inst accesses
system.cpu.itb.stage2_mmu.stage2_tlb.inst_hits            0                       # ITB inst hits
system.cpu.itb.stage2_mmu.stage2_tlb.inst_misses            0                       # ITB inst misses
system.cpu.itb.stage2_mmu.stage2_tlb.misses            0                       # DTB misses
system.cpu.itb.stage2_mmu.stage2_tlb.perms_faults            0                       # Number of TLB faults due to permissions restrictions
system.cpu.itb.stage2_mmu.stage2_tlb.prefetch_faults            0                       # Number of TLB faults due to prefetch
system.cpu.itb.stage2_mmu.stage2_tlb.read_accesses            0                       # DTB read accesses
system.cpu.itb.stage2_mmu.stage2_tlb.read_hits            0                       # DTB read hits
system.cpu.itb.stage2_mmu.stage2_tlb.read_misses            0                       # DTB read misses
system.cpu.itb.stage2_mmu.stage2_tlb.walker.walkRequestOrigin_Requested::Data            0                       # Table walker requests started/completed, data/inst
system.cpu.itb.stage2_mmu.stage2_tlb.walker.walkRequestOrigin_Requested::Inst            0                       # Table walker requests started/completed, data/inst
system.cpu.itb.stage2_mmu.stage2_tlb.walker.walkRequestOrigin_Requested::total            0                       # Table walker requests started/completed, data/inst
system.cpu.itb.stage2_mmu.stage2_tlb.walker.walkRequestOrigin_Completed::Data            0                       # Table walker requests started/completed, data/inst
system.cpu.itb.stage2_mmu.stage2_tlb.walker.walkRequestOrigin_Completed::Inst            0                       # Table walker requests started/completed, data/inst
system.cpu.itb.stage2_mmu.stage2_tlb.walker.walkRequestOrigin_Completed::total            0                       # Table walker requests started/completed, data/inst
system.cpu.itb.stage2_mmu.stage2_tlb.walker.walkRequestOrigin::total            0                       # Table walker requests started/completed, data/inst
system.cpu.itb.stage2_mmu.stage2_tlb.walker.walks            0                       # Table walker walks requested
system.cpu.itb.stage2_mmu.stage2_tlb.write_accesses            0                       # DTB write accesses
system.cpu.itb.stage2_mmu.stage2_tlb.write_hits            0                       # DTB write hits
system.cpu.itb.stage2_mmu.stage2_tlb.write_misses            0                       # DTB write misses
system.cpu.itb.walker.walkRequestOrigin_Requested::Data            0                       # Table walker requests started/completed, data/inst
system.cpu.itb.walker.walkRequestOrigin_Requested::Inst            0                       # Table walker requests started/completed, data/inst
system.cpu.itb.walker.walkRequestOrigin_Requested::total            0                       # Table walker requests started/completed, data/inst
system.cpu.itb.walker.walkRequestOrigin_Completed::Data            0                       # Table walker requests started/completed, data/inst
system.cpu.itb.walker.walkRequestOrigin_Completed::Inst            0                       # Table walker requests started/completed, data/inst
system.cpu.itb.walker.walkRequestOrigin_Completed::total            0                       # Table walker requests started/completed, data/inst
system.cpu.itb.walker.walkRequestOrigin::total            0                       # Table walker requests started/completed, data/inst
system.cpu.itb.walker.walks                         0                       # Table walker walks requested
system.cpu.itb.write_accesses                       0                       # DTB write accesses
system.cpu.itb.write_hits                           0                       # DTB write hits
system.cpu.itb.write_misses                         0                       # DTB write misses
system.cpu.memDep0.conflictingLoads             41827                       # Number of conflicting loads.
system.cpu.memDep0.conflictingStores            98335                       # Number of conflicting stores.
system.cpu.memDep0.insertedLoads              3241789                       # Number of loads inserted to the mem dependence unit.
system.cpu.memDep0.insertedStores             1820532                       # Number of stores inserted to the mem dependence unit.
system.cpu.misc_regfile_reads                 9344419                       # number of misc regfile reads
system.cpu.misc_regfile_writes                  60935                       # number of misc regfile writes
system.cpu.numCycles                         11847272                       # number of cpu cycles simulated
system.cpu.numWorkItemsCompleted                    0                       # number of work items this cpu completed
system.cpu.numWorkItemsStarted                      0                       # number of work items this cpu started
system.cpu.rename.BlockCycles                 1365360                       # Number of cycles rename is blocking
system.cpu.rename.CommittedMaps              11629682                       # Number of HB maps that are committed
system.cpu.rename.IQFullEvents                 143014                       # Number of times rename has blocked due to IQ full
system.cpu.rename.IdleCycles                  3643804                       # Number of cycles rename is idle
system.cpu.rename.LQFullEvents                 958455                       # Number of times rename has blocked due to LQ full
system.cpu.rename.ROBFullEvents                  7983                       # Number of times rename has blocked due to ROB full
system.cpu.rename.RenameLookups              21871801                       # Number of register rename lookups that rename has made
system.cpu.rename.RenamedInsts               13455286                       # Number of instructions processed by rename
system.cpu.rename.RenamedOperands            13785567                       # Number of destination operands rename has renamed
system.cpu.rename.RunCycles                   2107573                       # Number of cycles rename is running
system.cpu.rename.SQFullEvents                1304284                       # Number of times rename has blocked due to SQ full
system.cpu.rename.SquashCycles                  36102                       # Number of cycles rename is squashing
system.cpu.rename.UnblockCycles               2439967                       # Number of cycles rename is unblocking
system.cpu.rename.UndoneMaps                  2155840                       # Number of HB maps that are undone due to squashing
system.cpu.rename.int_rename_lookups         17658783                       # Number of integer rename lookups
system.cpu.rename.serializeStallCycles        1682432                       # count of cycles rename stalled for serializing inst
system.cpu.rename.serializingInsts              46493                       # count of serializing insts renamed
system.cpu.rename.skidInsts                   1210591                       # count of insts added to the skid buffer
system.cpu.rename.tempSerializingInsts            192                       # count of temporary serializing insts renamed
system.cpu.rename.vec_rename_lookups           105428                       # Number of vector rename lookups
system.cpu.rob.rob_reads                     23437928                       # The number of ROB reads
system.cpu.rob.rob_writes                    26800223                       # The number of ROB writes
system.cpu.timesIdled                           87383                       # Number of times that the entire CPU went into an idle state and unscheduled itself
system.cpu.vec_regfile_reads                    82002                       # number of vector regfile reads
system.cpu.vec_regfile_writes                   84903                       # number of vector regfile writes
system.cpu.workload.numSyscalls                    90                       # Number of system calls
system.membus.snoop_filter.hit_multi_requests            0                       # Number of requests hitting in the snoop filter with multiple (>1) holders of the requested data.
system.membus.snoop_filter.hit_multi_snoops            0                       # Number of snoops hitting in the snoop filter with multiple (>1) holders of the requested data.
system.membus.snoop_filter.hit_single_requests        67870                       # Number of requests hitting in the snoop filter with a single holder of the requested data.
system.membus.snoop_filter.hit_single_snoops            0                       # Number of snoops hitting in the snoop filter with a single holder of the requested data.
system.membus.snoop_filter.tot_requests        168498                       # Total number of requests made to the snoop filter.
system.membus.snoop_filter.tot_snoops               0                       # Total number of snoops made to the snoop filter.
system.tol2bus.snoop_filter.hit_multi_requests            8                       # Number of requests hitting in the snoop filter with multiple (>1) holders of the requested data.
system.tol2bus.snoop_filter.hit_multi_snoops            0                       # Number of snoops hitting in the snoop filter with multiple (>1) holders of the requested data.
system.tol2bus.snoop_filter.hit_single_requests       497613                       # Number of requests hitting in the snoop filter with a single holder of the requested data.
system.tol2bus.snoop_filter.hit_single_snoops           51                       # Number of snoops hitting in the snoop filter with a single holder of the requested data.
system.tol2bus.snoop_filter.tot_requests       996316                       # Total number of requests made to the snoop filter.
system.tol2bus.snoop_filter.tot_snoops             51                       # Total number of snoops made to the snoop filter.
system.membus.trans_dist::ReadResp              15883                       # Transaction distribution
system.membus.trans_dist::WritebackDirty        62807                       # Transaction distribution
system.membus.trans_dist::CleanEvict             5050                       # Transaction distribution
system.membus.trans_dist::ReadExReq             27378                       # Transaction distribution
system.membus.trans_dist::ReadExResp            27378                       # Transaction distribution
system.membus.trans_dist::ReadSharedReq         15883                       # Transaction distribution
system.membus.trans_dist::InvalidateReq         57367                       # Transaction distribution
system.membus.pkt_count_system.l2.mem_side::system.mem_ctrls.port       211746                       # Packet count per connected master and slave (bytes)
system.membus.pkt_count::total                 211746                       # Packet count per connected master and slave (bytes)
system.membus.pkt_size_system.l2.mem_side::system.mem_ctrls.port      6788352                       # Cumulative packet size per connected master and slave (bytes)
system.membus.pkt_size::total                 6788352                       # Cumulative packet size per connected master and slave (bytes)
system.membus.snoops                                0                       # Total snoops (count)
system.membus.snoopTraffic                          0                       # Total snoop traffic (bytes)
system.membus.snoop_fanout::samples            100628                       # Request fanout histogram
system.membus.snoop_fanout::mean                    0                       # Request fanout histogram
system.membus.snoop_fanout::stdev                   0                       # Request fanout histogram
system.membus.snoop_fanout::underflows              0      0.00%      0.00% # Request fanout histogram
system.membus.snoop_fanout::0                  100628    100.00%    100.00% # Request fanout histogram
system.membus.snoop_fanout::1                       0      0.00%    100.00% # Request fanout histogram
system.membus.snoop_fanout::overflows               0      0.00%    100.00% # Request fanout histogram
system.membus.snoop_fanout::min_value               0                       # Request fanout histogram
system.membus.snoop_fanout::max_value               0                       # Request fanout histogram
system.membus.snoop_fanout::total              100628                       # Request fanout histogram
system.membus.reqLayer0.occupancy           435638813                       # Layer occupancy (ticks)
system.membus.reqLayer0.utilization               7.4                       # Layer utilization (%)
system.membus.respLayer1.occupancy          230656995                       # Layer occupancy (ticks)
system.membus.respLayer1.utilization              3.9                       # Layer utilization (%)
system.membus.power_state.pwrStateResidencyTicks::UNDEFINED   5923635500                       # Cumulative time (in ticks) in various power states
system.tol2bus.trans_dist::ReadResp            403308                       # Transaction distribution
system.tol2bus.trans_dist::WritebackDirty       175772                       # Transaction distribution
system.tol2bus.trans_dist::WritebackClean       379017                       # Transaction distribution
system.tol2bus.trans_dist::CleanEvict           10732                       # Transaction distribution
system.tol2bus.trans_dist::ReadExReq            38025                       # Transaction distribution
system.tol2bus.trans_dist::ReadExResp           38025                       # Transaction distribution
system.tol2bus.trans_dist::ReadCleanReq        379083                       # Transaction distribution
system.tol2bus.trans_dist::ReadSharedReq        24227                       # Transaction distribution
system.tol2bus.trans_dist::InvalidateReq        57368                       # Transaction distribution
system.tol2bus.trans_dist::InvalidateResp        57368                       # Transaction distribution
system.tol2bus.pkt_count_system.cpu.icache.mem_side::system.l2.cpu_side      1137181                       # Packet count per connected master and slave (bytes)
system.tol2bus.pkt_count_system.cpu.dcache.mem_side::system.l2.cpu_side       357836                       # Packet count per connected master and slave (bytes)
system.tol2bus.pkt_count::total               1495017                       # Packet count per connected master and slave (bytes)
system.tol2bus.pkt_size_system.cpu.icache.mem_side::system.l2.cpu_side     48518272                       # Cumulative packet size per connected master and slave (bytes)
system.tol2bus.pkt_size_system.cpu.dcache.mem_side::system.l2.cpu_side     11213888                       # Cumulative packet size per connected master and slave (bytes)
system.tol2bus.pkt_size::total               59732160                       # Cumulative packet size per connected master and slave (bytes)
system.tol2bus.snoops                           67908                       # Total snoops (count)
system.tol2bus.snoopTraffic                   4019648                       # Total snoop traffic (bytes)
system.tol2bus.snoop_fanout::samples           566611                       # Request fanout histogram
system.tol2bus.snoop_fanout::mean            0.000104                       # Request fanout histogram
system.tol2bus.snoop_fanout::stdev           0.010204                       # Request fanout histogram
system.tol2bus.snoop_fanout::underflows             0      0.00%      0.00% # Request fanout histogram
system.tol2bus.snoop_fanout::0                 566552     99.99%     99.99% # Request fanout histogram
system.tol2bus.snoop_fanout::1                     59      0.01%    100.00% # Request fanout histogram
system.tol2bus.snoop_fanout::2                      0      0.00%    100.00% # Request fanout histogram
system.tol2bus.snoop_fanout::overflows              0      0.00%    100.00% # Request fanout histogram
system.tol2bus.snoop_fanout::min_value              0                       # Request fanout histogram
system.tol2bus.snoop_fanout::max_value              1                       # Request fanout histogram
system.tol2bus.snoop_fanout::total             566611                       # Request fanout histogram
system.tol2bus.reqLayer0.occupancy         1065837409                       # Layer occupancy (ticks)
system.tol2bus.reqLayer0.utilization             18.0                       # Layer utilization (%)
system.tol2bus.respLayer1.occupancy         122715690                       # Layer occupancy (ticks)
system.tol2bus.respLayer1.utilization             2.1                       # Layer utilization (%)
system.tol2bus.respLayer0.occupancy         568624494                       # Layer occupancy (ticks)
system.tol2bus.respLayer0.utilization             9.6                       # Layer utilization (%)
system.tol2bus.power_state.pwrStateResidencyTicks::UNDEFINED   5923635500                       # Cumulative time (in ticks) in various power states
system.voltage_domain.voltage                       1                       # Voltage in Volts
system.clk_domain.clock                          1000                       # Clock period in ticks
system.l2.demand_hits::.cpu.inst               128570                       # number of demand (read+write) hits
system.l2.demand_hits::.cpu.data                19878                       # number of demand (read+write) hits
system.l2.demand_hits::.cpu.icache.prefetcher       249626                       # number of demand (read+write) hits
system.l2.demand_hits::total                   398074                       # number of demand (read+write) hits
system.l2.overall_hits::.cpu.inst              128570                       # number of overall hits
system.l2.overall_hits::.cpu.data               19878                       # number of overall hits
system.l2.overall_hits::.cpu.icache.prefetcher       249626                       # number of overall hits
system.l2.overall_hits::total                  398074                       # number of overall hits
system.l2.demand_misses::.cpu.inst                831                       # number of demand (read+write) misses
system.l2.demand_misses::.cpu.data              42374                       # number of demand (read+write) misses
system.l2.demand_misses::.cpu.icache.prefetcher           56                       # number of demand (read+write) misses
system.l2.demand_misses::total                  43261                       # number of demand (read+write) misses
system.l2.overall_misses::.cpu.inst               831                       # number of overall misses
system.l2.overall_misses::.cpu.data             42374                       # number of overall misses
system.l2.overall_misses::.cpu.icache.prefetcher           56                       # number of overall misses
system.l2.overall_misses::total                 43261                       # number of overall misses
system.l2.demand_miss_latency::.cpu.inst     67895500                       # number of demand (read+write) miss cycles
system.l2.demand_miss_latency::.cpu.data   3871247500                       # number of demand (read+write) miss cycles
system.l2.demand_miss_latency::.cpu.icache.prefetcher      5474923                       # number of demand (read+write) miss cycles
system.l2.demand_miss_latency::total       3944617923                       # number of demand (read+write) miss cycles
system.l2.overall_miss_latency::.cpu.inst     67895500                       # number of overall miss cycles
system.l2.overall_miss_latency::.cpu.data   3871247500                       # number of overall miss cycles
system.l2.overall_miss_latency::.cpu.icache.prefetcher      5474923                       # number of overall miss cycles
system.l2.overall_miss_latency::total      3944617923                       # number of overall miss cycles
system.l2.demand_accesses::.cpu.inst           129401                       # number of demand (read+write) accesses
system.l2.demand_accesses::.cpu.data            62252                       # number of demand (read+write) accesses
system.l2.demand_accesses::.cpu.icache.prefetcher       249682                       # number of demand (read+write) accesses
system.l2.demand_accesses::total               441335                       # number of demand (read+write) accesses
system.l2.overall_accesses::.cpu.inst          129401                       # number of overall (read+write) accesses
system.l2.overall_accesses::.cpu.data           62252                       # number of overall (read+write) accesses
system.l2.overall_accesses::.cpu.icache.prefetcher       249682                       # number of overall (read+write) accesses
system.l2.overall_accesses::total              441335                       # number of overall (read+write) accesses
system.l2.demand_miss_rate::.cpu.inst        0.006422                       # miss rate for demand accesses
system.l2.demand_miss_rate::.cpu.data        0.680685                       # miss rate for demand accesses
system.l2.demand_miss_rate::.cpu.icache.prefetcher     0.000224                       # miss rate for demand accesses
system.l2.demand_miss_rate::total            0.098023                       # miss rate for demand accesses
system.l2.overall_miss_rate::.cpu.inst       0.006422                       # miss rate for overall accesses
system.l2.overall_miss_rate::.cpu.data       0.680685                       # miss rate for overall accesses
system.l2.overall_miss_rate::.cpu.icache.prefetcher     0.000224                       # miss rate for overall accesses
system.l2.overall_miss_rate::total           0.098023                       # miss rate for overall accesses
system.l2.demand_avg_miss_latency::.cpu.inst 81703.369434                       # average overall miss latency
system.l2.demand_avg_miss_latency::.cpu.data 91359.029122                       # average overall miss latency
system.l2.demand_avg_miss_latency::.cpu.icache.prefetcher 97766.482143                       # average overall miss latency
system.l2.demand_avg_miss_latency::total 91181.847923                       # average overall miss latency
system.l2.overall_avg_miss_latency::.cpu.inst 81703.369434                       # average overall miss latency
system.l2.overall_avg_miss_latency::.cpu.data 91359.029122                       # average overall miss latency
system.l2.overall_avg_miss_latency::.cpu.icache.prefetcher 97766.482143                       # average overall miss latency
system.l2.overall_avg_miss_latency::total 91181.847923                       # average overall miss latency
system.l2.blocked_cycles::no_mshrs                  0                       # number of cycles access was blocked
system.l2.blocked_cycles::no_targets                0                       # number of cycles access was blocked
system.l2.blocked::no_mshrs                         0                       # number of cycles access was blocked
system.l2.blocked::no_targets                       0                       # number of cycles access was blocked
system.l2.avg_blocked_cycles::no_mshrs            nan                       # average number of cycles each access was blocked
system.l2.avg_blocked_cycles::no_targets          nan                       # average number of cycles each access was blocked
system.l2.writebacks::.writebacks               62807                       # number of writebacks
system.l2.writebacks::total                     62807                       # number of writebacks
system.l2.demand_mshr_misses::.cpu.inst           831                       # number of demand (read+write) MSHR misses
system.l2.demand_mshr_misses::.cpu.data         42374                       # number of demand (read+write) MSHR misses
system.l2.demand_mshr_misses::.cpu.icache.prefetcher           56                       # number of demand (read+write) MSHR misses
system.l2.demand_mshr_misses::total             43261                       # number of demand (read+write) MSHR misses
system.l2.overall_mshr_misses::.cpu.inst          831                       # number of overall MSHR misses
system.l2.overall_mshr_misses::.cpu.data        42374                       # number of overall MSHR misses
system.l2.overall_mshr_misses::.cpu.icache.prefetcher           56                       # number of overall MSHR misses
system.l2.overall_mshr_misses::total            43261                       # number of overall MSHR misses
system.l2.demand_mshr_miss_latency::.cpu.inst     59585001                       # number of demand (read+write) MSHR miss cycles
system.l2.demand_mshr_miss_latency::.cpu.data   3447507500                       # number of demand (read+write) MSHR miss cycles
system.l2.demand_mshr_miss_latency::.cpu.icache.prefetcher      4914923                       # number of demand (read+write) MSHR miss cycles
system.l2.demand_mshr_miss_latency::total   3512007424                       # number of demand (read+write) MSHR miss cycles
system.l2.overall_mshr_miss_latency::.cpu.inst     59585001                       # number of overall MSHR miss cycles
system.l2.overall_mshr_miss_latency::.cpu.data   3447507500                       # number of overall MSHR miss cycles
system.l2.overall_mshr_miss_latency::.cpu.icache.prefetcher      4914923                       # number of overall MSHR miss cycles
system.l2.overall_mshr_miss_latency::total   3512007424                       # number of overall MSHR miss cycles
system.l2.demand_mshr_miss_rate::.cpu.inst     0.006422                       # mshr miss rate for demand accesses
system.l2.demand_mshr_miss_rate::.cpu.data     0.680685                       # mshr miss rate for demand accesses
system.l2.demand_mshr_miss_rate::.cpu.icache.prefetcher     0.000224                       # mshr miss rate for demand accesses
system.l2.demand_mshr_miss_rate::total       0.098023                       # mshr miss rate for demand accesses
system.l2.overall_mshr_miss_rate::.cpu.inst     0.006422                       # mshr miss rate for overall accesses
system.l2.overall_mshr_miss_rate::.cpu.data     0.680685                       # mshr miss rate for overall accesses
system.l2.overall_mshr_miss_rate::.cpu.icache.prefetcher     0.000224                       # mshr miss rate for overall accesses
system.l2.overall_mshr_miss_rate::total      0.098023                       # mshr miss rate for overall accesses
system.l2.demand_avg_mshr_miss_latency::.cpu.inst 71702.768953                       # average overall mshr miss latency
system.l2.demand_avg_mshr_miss_latency::.cpu.data 81359.029122                       # average overall mshr miss latency
system.l2.demand_avg_mshr_miss_latency::.cpu.icache.prefetcher 87766.482143                       # average overall mshr miss latency
system.l2.demand_avg_mshr_miss_latency::total 81181.836388                       # average overall mshr miss latency
system.l2.overall_avg_mshr_miss_latency::.cpu.inst 71702.768953                       # average overall mshr miss latency
system.l2.overall_avg_mshr_miss_latency::.cpu.data 81359.029122                       # average overall mshr miss latency
system.l2.overall_avg_mshr_miss_latency::.cpu.icache.prefetcher 87766.482143                       # average overall mshr miss latency
system.l2.overall_avg_mshr_miss_latency::total 81181.836388                       # average overall mshr miss latency
system.l2.replacements                          67908                       # number of replacements
system.l2.WritebackDirty_hits::.writebacks       112965                       # number of WritebackDirty hits
system.l2.WritebackDirty_hits::total           112965                       # number of WritebackDirty hits
system.l2.WritebackDirty_accesses::.writebacks       112965                       # number of WritebackDirty accesses(hits+misses)
system.l2.WritebackDirty_accesses::total       112965                       # number of WritebackDirty accesses(hits+misses)
system.l2.WritebackClean_hits::.writebacks       379010                       # number of WritebackClean hits
system.l2.WritebackClean_hits::total           379010                       # number of WritebackClean hits
system.l2.WritebackClean_accesses::.writebacks       379010                       # number of WritebackClean accesses(hits+misses)
system.l2.WritebackClean_accesses::total       379010                       # number of WritebackClean accesses(hits+misses)
system.l2.ReadExReq_hits::.cpu.data             10647                       # number of ReadExReq hits
system.l2.ReadExReq_hits::total                 10647                       # number of ReadExReq hits
system.l2.ReadExReq_misses::.cpu.data           27378                       # number of ReadExReq misses
system.l2.ReadExReq_misses::total               27378                       # number of ReadExReq misses
system.l2.ReadExReq_miss_latency::.cpu.data   2581738000                       # number of ReadExReq miss cycles
system.l2.ReadExReq_miss_latency::total    2581738000                       # number of ReadExReq miss cycles
system.l2.ReadExReq_accesses::.cpu.data         38025                       # number of ReadExReq accesses(hits+misses)
system.l2.ReadExReq_accesses::total             38025                       # number of ReadExReq accesses(hits+misses)
system.l2.ReadExReq_miss_rate::.cpu.data     0.720000                       # miss rate for ReadExReq accesses
[...]
system.cpu.dcache.demand_accesses::.cpu.data      4541569                       # number of demand (read+write) accesses
system.cpu.dcache.demand_accesses::total      4541569                       # number of demand (read+write) accesses
system.cpu.dcache.overall_accesses::.cpu.data      4541623                       # number of overall (read+write) accesses
system.cpu.dcache.overall_accesses::total      4541623                       # number of overall (read+write) accesses
system.cpu.dcache.demand_miss_rate::.cpu.data     0.076447                       # miss rate for demand accesses
system.cpu.dcache.demand_miss_rate::total     0.076447                       # miss rate for demand accesses
system.cpu.dcache.overall_miss_rate::.cpu.data     0.076449                       # miss rate for overall accesses
system.cpu.dcache.overall_miss_rate::total     0.076449                       # miss rate for overall accesses
system.cpu.dcache.demand_avg_miss_latency::.cpu.data 47141.861689                       # average overall miss latency
system.cpu.dcache.demand_avg_miss_latency::total 47141.861689                       # average overall miss latency
system.cpu.dcache.overall_avg_miss_latency::.cpu.data 47140.096595                       # average overall miss latency
system.cpu.dcache.overall_avg_miss_latency::total 47140.096595                       # average overall miss latency
system.cpu.dcache.blocked_cycles::no_mshrs      1360458                       # number of cycles access was blocked
system.cpu.dcache.blocked_cycles::no_targets          569                       # number of cycles access was blocked
system.cpu.dcache.blocked::no_mshrs             69703                       # number of cycles access was blocked
system.cpu.dcache.blocked::no_targets              19                       # number of cycles access was blocked
system.cpu.dcache.avg_blocked_cycles::no_mshrs    19.517926                       # average number of cycles each access was blocked
system.cpu.dcache.avg_blocked_cycles::no_targets    29.947368                       # average number of cycles each access was blocked
system.cpu.dcache.writebacks::.writebacks       112965                       # number of writebacks
system.cpu.dcache.writebacks::total            112965                       # number of writebacks
system.cpu.dcache.demand_mshr_hits::.cpu.data       227583                       # number of demand (read+write) MSHR hits
system.cpu.dcache.demand_mshr_hits::total       227583                       # number of demand (read+write) MSHR hits
system.cpu.dcache.overall_mshr_hits::.cpu.data       227583                       # number of overall MSHR hits
system.cpu.dcache.overall_mshr_hits::total       227583                       # number of overall MSHR hits
system.cpu.dcache.demand_mshr_misses::.cpu.data       119606                       # number of demand (read+write) MSHR misses
system.cpu.dcache.demand_mshr_misses::total       119606                       # number of demand (read+write) MSHR misses
system.cpu.dcache.overall_mshr_misses::.cpu.data       119619                       # number of overall MSHR misses
system.cpu.dcache.overall_mshr_misses::total       119619                       # number of overall MSHR misses
system.cpu.dcache.demand_mshr_miss_latency::.cpu.data   6023466070                       # number of demand (read+write) MSHR miss cycles
system.cpu.dcache.demand_mshr_miss_latency::total   6023466070                       # number of demand (read+write) MSHR miss cycles
system.cpu.dcache.overall_mshr_miss_latency::.cpu.data   6023785070                       # number of overall MSHR miss cycles
system.cpu.dcache.overall_mshr_miss_latency::total   6023785070                       # number of overall MSHR miss cycles
system.cpu.dcache.demand_mshr_miss_rate::.cpu.data     0.026336                       # mshr miss rate for demand accesses
system.cpu.dcache.demand_mshr_miss_rate::total     0.026336                       # mshr miss rate for demand accesses
system.cpu.dcache.overall_mshr_miss_rate::.cpu.data     0.026338                       # mshr miss rate for overall accesses
system.cpu.dcache.overall_mshr_miss_rate::total     0.026338                       # mshr miss rate for overall accesses
system.cpu.dcache.demand_avg_mshr_miss_latency::.cpu.data 50360.902212                       # average overall mshr miss latency
system.cpu.dcache.demand_avg_mshr_miss_latency::total 50360.902212                       # average overall mshr miss latency
system.cpu.dcache.overall_avg_mshr_miss_latency::.cpu.data 50358.095871                       # average overall mshr miss latency
system.cpu.dcache.overall_avg_mshr_miss_latency::total 50358.095871                       # average overall mshr miss latency
system.cpu.dcache.replacements                 118596                       # number of replacements
system.cpu.dcache.ReadReq_hits::.cpu.data      2881952                       # number of ReadReq hits
system.cpu.dcache.ReadReq_hits::total         2881952                       # number of ReadReq hits
system.cpu.dcache.ReadReq_misses::.cpu.data        75864                       # number of ReadReq misses
system.cpu.dcache.ReadReq_misses::total         75864                       # number of ReadReq misses
system.cpu.dcache.ReadReq_miss_latency::.cpu.data   4264170500                       # number of ReadReq miss cycles
system.cpu.dcache.ReadReq_miss_latency::total   4264170500                       # number of ReadReq miss cycles
system.cpu.dcache.ReadReq_accesses::.cpu.data      2957816                       # number of ReadReq accesses(hits+misses)
system.cpu.dcache.ReadReq_accesses::total      2957816                       # number of ReadReq accesses(hits+misses)
system.cpu.dcache.ReadReq_miss_rate::.cpu.data     0.025649                       # miss rate for ReadReq accesses
system.cpu.dcache.ReadReq_miss_rate::total     0.025649                       # miss rate for ReadReq accesses
system.cpu.dcache.ReadReq_avg_miss_latency::.cpu.data 56208.089476                       # average ReadReq miss latency
system.cpu.dcache.ReadReq_avg_miss_latency::total 56208.089476                       # average ReadReq miss latency
system.cpu.dcache.ReadReq_mshr_hits::.cpu.data        51651                       # number of ReadReq MSHR hits
system.cpu.dcache.ReadReq_mshr_hits::total        51651                       # number of ReadReq MSHR hits
system.cpu.dcache.ReadReq_mshr_misses::.cpu.data        24213                       # number of ReadReq MSHR misses
system.cpu.dcache.ReadReq_mshr_misses::total        24213                       # number of ReadReq MSHR misses
system.cpu.dcache.ReadReq_mshr_miss_latency::.cpu.data   1426882500                       # number of ReadReq MSHR miss cycles
system.cpu.dcache.ReadReq_mshr_miss_latency::total   1426882500                       # number of ReadReq MSHR miss cycles
system.cpu.dcache.ReadReq_mshr_miss_rate::.cpu.data     0.008186                       # mshr miss rate for ReadReq accesses
system.cpu.dcache.ReadReq_mshr_miss_rate::total     0.008186                       # mshr miss rate for ReadReq accesses
system.cpu.dcache.ReadReq_avg_mshr_miss_latency::.cpu.data 58930.429934                       # average ReadReq mshr miss latency
system.cpu.dcache.ReadReq_avg_mshr_miss_latency::total 58930.429934                       # average ReadReq mshr miss latency
system.cpu.dcache.WriteReq_hits::.cpu.data      1312428                       # number of WriteReq hits
system.cpu.dcache.WriteReq_hits::total        1312428                       # number of WriteReq hits
system.cpu.dcache.WriteReq_misses::.cpu.data       213983                       # number of WriteReq misses
system.cpu.dcache.WriteReq_misses::total       213983                       # number of WriteReq misses
system.cpu.dcache.WriteReq_miss_latency::.cpu.data  10211341765                       # number of WriteReq miss cycles
system.cpu.dcache.WriteReq_miss_latency::total  10211341765                       # number of WriteReq miss cycles
system.cpu.dcache.WriteReq_accesses::.cpu.data      1526411                       # number of WriteReq accesses(hits+misses)
system.cpu.dcache.WriteReq_accesses::total      1526411                       # number of WriteReq accesses(hits+misses)
system.cpu.dcache.WriteReq_miss_rate::.cpu.data     0.140187                       # miss rate for WriteReq accesses
system.cpu.dcache.WriteReq_miss_rate::total     0.140187                       # miss rate for WriteReq accesses
system.cpu.dcache.WriteReq_avg_miss_latency::.cpu.data 47720.341172                       # average WriteReq miss latency
system.cpu.dcache.WriteReq_avg_miss_latency::total 47720.341172                       # average WriteReq miss latency
system.cpu.dcache.WriteReq_mshr_hits::.cpu.data       175932                       # number of WriteReq MSHR hits
system.cpu.dcache.WriteReq_mshr_hits::total       175932                       # number of WriteReq MSHR hits
system.cpu.dcache.WriteReq_mshr_misses::.cpu.data        38051                       # number of WriteReq MSHR misses
system.cpu.dcache.WriteReq_mshr_misses::total        38051                       # number of WriteReq MSHR misses
system.cpu.dcache.WriteReq_mshr_miss_latency::.cpu.data   2762302017                       # number of WriteReq MSHR miss cycles
system.cpu.dcache.WriteReq_mshr_miss_latency::total   2762302017                       # number of WriteReq MSHR miss cycles
system.cpu.dcache.WriteReq_mshr_miss_rate::.cpu.data     0.024928                       # mshr miss rate for WriteReq accesses
system.cpu.dcache.WriteReq_mshr_miss_rate::total     0.024928                       # mshr miss rate for WriteReq accesses
system.cpu.dcache.WriteReq_avg_mshr_miss_latency::.cpu.data 72594.728575                       # average WriteReq mshr miss latency
system.cpu.dcache.WriteReq_avg_mshr_miss_latency::total 72594.728575                       # average WriteReq mshr miss latency
system.cpu.dcache.SoftPFReq_hits::.cpu.data           41                       # number of SoftPFReq hits
system.cpu.dcache.SoftPFReq_hits::total            41                       # number of SoftPFReq hits
system.cpu.dcache.SoftPFReq_misses::.cpu.data           13                       # number of SoftPFReq misses
system.cpu.dcache.SoftPFReq_misses::total           13                       # number of SoftPFReq misses
system.cpu.dcache.SoftPFReq_accesses::.cpu.data           54                       # number of SoftPFReq accesses(hits+misses)
system.cpu.dcache.SoftPFReq_accesses::total           54                       # number of SoftPFReq accesses(hits+misses)
system.cpu.dcache.SoftPFReq_miss_rate::.cpu.data     0.240741                       # miss rate for SoftPFReq accesses
system.cpu.dcache.SoftPFReq_miss_rate::total     0.240741                       # miss rate for SoftPFReq accesses
system.cpu.dcache.SoftPFReq_mshr_misses::.cpu.data           13                       # number of SoftPFReq MSHR misses
system.cpu.dcache.SoftPFReq_mshr_misses::total           13                       # number of SoftPFReq MSHR misses
system.cpu.dcache.SoftPFReq_mshr_miss_latency::.cpu.data       319000                       # number of SoftPFReq MSHR miss cycles
system.cpu.dcache.SoftPFReq_mshr_miss_latency::total       319000                       # number of SoftPFReq MSHR miss cycles
system.cpu.dcache.SoftPFReq_mshr_miss_rate::.cpu.data     0.240741                       # mshr miss rate for SoftPFReq accesses
system.cpu.dcache.SoftPFReq_mshr_miss_rate::total     0.240741                       # mshr miss rate for SoftPFReq accesses
system.cpu.dcache.SoftPFReq_avg_mshr_miss_latency::.cpu.data 24538.461538                       # average SoftPFReq mshr miss latency
system.cpu.dcache.SoftPFReq_avg_mshr_miss_latency::total 24538.461538                       # average SoftPFReq mshr miss latency
system.cpu.dcache.WriteLineReq_misses::.cpu.data        57342                       # number of WriteLineReq misses
system.cpu.dcache.WriteLineReq_misses::total        57342                       # number of WriteLineReq misses
system.cpu.dcache.WriteLineReq_miss_latency::.cpu.data   1891623553                       # number of WriteLineReq miss cycles
system.cpu.dcache.WriteLineReq_miss_latency::total   1891623553                       # number of WriteLineReq miss cycles
system.cpu.dcache.WriteLineReq_accesses::.cpu.data        57342                       # number of WriteLineReq accesses(hits+misses)
system.cpu.dcache.WriteLineReq_accesses::total        57342                       # number of WriteLineReq accesses(hits+misses)
system.cpu.dcache.WriteLineReq_miss_rate::.cpu.data            1                       # miss rate for WriteLineReq accesses
system.cpu.dcache.WriteLineReq_miss_rate::total            1                       # miss rate for WriteLineReq accesses
system.cpu.dcache.WriteLineReq_avg_miss_latency::.cpu.data 32988.447438                       # average WriteLineReq miss latency
system.cpu.dcache.WriteLineReq_avg_miss_latency::total 32988.447438                       # average WriteLineReq miss latency
system.cpu.dcache.WriteLineReq_mshr_misses::.cpu.data        57342                       # number of WriteLineReq MSHR misses
system.cpu.dcache.WriteLineReq_mshr_misses::total        57342                       # number of WriteLineReq MSHR misses
system.cpu.dcache.WriteLineReq_mshr_miss_latency::.cpu.data   1834281553                       # number of WriteLineReq MSHR miss cycles
system.cpu.dcache.WriteLineReq_mshr_miss_latency::total   1834281553                       # number of WriteLineReq MSHR miss cycles
system.cpu.dcache.WriteLineReq_mshr_miss_rate::.cpu.data            1                       # mshr miss rate for WriteLineReq accesses
system.cpu.dcache.WriteLineReq_mshr_miss_rate::total            1                       # mshr miss rate for WriteLineReq accesses
system.cpu.dcache.WriteLineReq_avg_mshr_miss_latency::.cpu.data 31988.447438                       # average WriteLineReq mshr miss latency
system.cpu.dcache.WriteLineReq_avg_mshr_miss_latency::total 31988.447438                       # average WriteLineReq mshr miss latency
system.cpu.dcache.LoadLockedReq_hits::.cpu.data           85                       # number of LoadLockedReq hits
system.cpu.dcache.LoadLockedReq_hits::total           85                       # number of LoadLockedReq hits
system.cpu.dcache.LoadLockedReq_misses::.cpu.data            2                       # number of LoadLockedReq misses
system.cpu.dcache.LoadLockedReq_misses::total            2                       # number of LoadLockedReq misses
system.cpu.dcache.LoadLockedReq_miss_latency::.cpu.data        51000                       # number of LoadLockedReq miss cycles
system.cpu.dcache.LoadLockedReq_miss_latency::total        51000                       # number of LoadLockedReq miss cycles
system.cpu.dcache.LoadLockedReq_accesses::.cpu.data           87                       # number of LoadLockedReq accesses(hits+misses)
system.cpu.dcache.LoadLockedReq_accesses::total           87                       # number of LoadLockedReq accesses(hits+misses)
system.cpu.dcache.LoadLockedReq_miss_rate::.cpu.data     0.022989                       # miss rate for LoadLockedReq accesses
system.cpu.dcache.LoadLockedReq_miss_rate::total     0.022989                       # miss rate for LoadLockedReq accesses
system.cpu.dcache.LoadLockedReq_avg_miss_latency::.cpu.data        25500                       # average LoadLockedReq miss latency
system.cpu.dcache.LoadLockedReq_avg_miss_latency::total        25500                       # average LoadLockedReq miss latency
system.cpu.dcache.LoadLockedReq_mshr_hits::.cpu.data            1                       # number of LoadLockedReq MSHR hits
system.cpu.dcache.LoadLockedReq_mshr_hits::total            1                       # number of LoadLockedReq MSHR hits
system.cpu.dcache.LoadLockedReq_mshr_misses::.cpu.data            1                       # number of LoadLockedReq MSHR misses
system.cpu.dcache.LoadLockedReq_mshr_misses::total            1                       # number of LoadLockedReq MSHR misses
system.cpu.dcache.LoadLockedReq_mshr_miss_latency::.cpu.data        12000                       # number of LoadLockedReq MSHR miss cycles
system.cpu.dcache.LoadLockedReq_mshr_miss_latency::total        12000                       # number of LoadLockedReq MSHR miss cycles
system.cpu.dcache.LoadLockedReq_mshr_miss_rate::.cpu.data     0.011494                       # mshr miss rate for LoadLockedReq accesses
system.cpu.dcache.LoadLockedReq_mshr_miss_rate::total     0.011494                       # mshr miss rate for LoadLockedReq accesses
system.cpu.dcache.LoadLockedReq_avg_mshr_miss_latency::.cpu.data        12000                       # average LoadLockedReq mshr miss latency
system.cpu.dcache.LoadLockedReq_avg_mshr_miss_latency::total        12000                       # average LoadLockedReq mshr miss latency
system.cpu.dcache.StoreCondReq_hits::.cpu.data           71                       # number of StoreCondReq hits
system.cpu.dcache.StoreCondReq_hits::total           71                       # number of StoreCondReq hits
system.cpu.dcache.StoreCondReq_accesses::.cpu.data           71                       # number of StoreCondReq accesses(hits+misses)
system.cpu.dcache.StoreCondReq_accesses::total           71                       # number of StoreCondReq accesses(hits+misses)
system.cpu.dcache.power_state.pwrStateResidencyTicks::UNDEFINED   5923635500                       # Cumulative time (in ticks) in various power states
system.cpu.dcache.tags.tagsinuse          1016.241183                       # Cycle average of tags in use
system.cpu.dcache.tags.total_refs             4314197                       # Total number of references to valid blocks.
system.cpu.dcache.tags.sampled_refs            119620                       # Sample count of references to valid blocks.
system.cpu.dcache.tags.avg_refs             36.065850                       # Average number of references to valid blocks.
system.cpu.dcache.tags.warmup_cycle            176500                       # Cycle when the warmup percentage was hit.
system.cpu.dcache.tags.occ_blocks::.cpu.data  1016.241183                       # Average occupied blocks per requestor
system.cpu.dcache.tags.occ_percent::.cpu.data     0.992423                       # Average percentage of cache occupancy
system.cpu.dcache.tags.occ_percent::total     0.992423                       # Average percentage of cache occupancy
system.cpu.dcache.tags.occ_task_id_blocks::1024         1024                       # Occupied blocks per task id
system.cpu.dcache.tags.age_task_id_blocks_1024::0           80                       # Occupied blocks per task id
system.cpu.dcache.tags.age_task_id_blocks_1024::1          529                       # Occupied blocks per task id
system.cpu.dcache.tags.age_task_id_blocks_1024::2          403                       # Occupied blocks per task id
system.cpu.dcache.tags.age_task_id_blocks_1024::3           12                       # Occupied blocks per task id
system.cpu.dcache.tags.occ_task_id_percent::1024            1                       # Percentage of cache occupancy per task id
system.cpu.dcache.tags.tag_accesses           9203182                       # Number of tag accesses
system.cpu.dcache.tags.data_accesses          9203182                       # Number of data accesses
system.cpu.dcache.tags.power_state.pwrStateResidencyTicks::UNDEFINED   5923635500                       # Cumulative time (in ticks) in various power states
system.cpu.power_state.pwrStateResidencyTicks::ON   5923635500                       # Cumulative time (in ticks) in various power states

---------- End Simulation Statistics   ----------
