
---------- Begin Simulation Statistics ----------
final_tick                                 2469543500                       # Number of ticks from beginning of simulation (restored from checkpoints and never reset)
host_inst_rate                                 206063                       # Simulator instruction rate (inst/s)
host_mem_usage                                 860912                       # Number of bytes of host memory used
host_op_rate                                   216644                       # Simulator op (including micro ops) rate (op/s)
host_seconds                                    48.53                       # Real time elapsed on the host
host_tick_rate                               50887916                       # Simulator tick rate (ticks/s)
sim_freq                                 1000000000000                       # Frequency of simulated ticks
sim_insts                                    10000005                       # Number of instructions simulated
sim_ops                                      10513546                       # Number of ops (including micro ops) simulated
sim_seconds                                  0.002470                       # Number of seconds simulated
sim_ticks                                  2469543500                       # Number of ticks simulated
system.cpu.branchPred.BTBCorrect                    0                       # Number of correct BTB predictions (this stat may not work properly.
system.cpu.branchPred.BTBHitPct             99.893875                       # BTB Hit Percentage
system.cpu.branchPred.BTBHits                  834916                       # Number of BTB hits
system.cpu.branchPred.BTBLookups               835803                       # Number of BTB lookups
system.cpu.branchPred.RASInCorrect                  1                       # Number of incorrect RAS predictions.
system.cpu.branchPred.condIncorrect             20090                       # Number of conditional branches incorrect
system.cpu.branchPred.condPredicted           1340421                       # Number of conditional branches predicted
system.cpu.branchPred.indirectHits                 49                       # Number of indirect target hits.
system.cpu.branchPred.indirectLookups             240                       # Number of indirect predictor lookups.
system.cpu.branchPred.indirectMisses              191                       # Number of indirect misses.
system.cpu.branchPred.lookups                 1844939                       # Number of BP lookups
system.cpu.branchPred.usedRAS                   12113                       # Number of times the RAS was used to get a target.
system.cpu.branchPredindirectMispredicted           55                       # Number of mispredicted indirect branches.
system.cpu.cc_regfile_reads                   2423373                       # number of cc regfile reads
system.cpu.cc_regfile_writes                  2427246                       # number of cc regfile writes
system.cpu.commit.amos                              0                       # Number of atomic instructions committed
system.cpu.commit.branchMispredicts             19863                       # The number of times a branch was mispredicted
system.cpu.commit.branches                    1664146                       # Number of branches committed
system.cpu.commit.bw_lim_events                903869                       # number cycles where commit BW limit reached
system.cpu.commit.commitNonSpecStalls              60                       # The number of times commit has been forced to stall to communicate backwards
system.cpu.commit.commitSquashedInsts          808866                       # The number of squashed insts skipped by commit
system.cpu.commit.committedInsts             10008737                       # Number of instructions committed
system.cpu.commit.committedOps               10522278                       # Number of ops (including micro ops) committed
system.cpu.commit.committed_per_cycle::samples      4785006                       # Number of insts commited each cycle
system.cpu.commit.committed_per_cycle::mean     2.199010                       # Number of insts commited each cycle
system.cpu.commit.committed_per_cycle::stdev     3.047731                       # Number of insts commited each cycle
system.cpu.commit.committed_per_cycle::underflows            0      0.00%      0.00% # Number of insts commited each cycle
system.cpu.commit.committed_per_cycle::0      2057475     43.00%     43.00% # Number of insts commited each cycle
system.cpu.commit.committed_per_cycle::1      1169214     24.43%     67.43% # Number of insts commited each cycle
system.cpu.commit.committed_per_cycle::2       308158      6.44%     73.87% # Number of insts commited each cycle
system.cpu.commit.committed_per_cycle::3       172434      3.60%     77.48% # Number of insts commited each cycle
system.cpu.commit.committed_per_cycle::4        17800      0.37%     77.85% # Number of insts commited each cycle
system.cpu.commit.committed_per_cycle::5        64140      1.34%     79.19% # Number of insts commited each cycle
system.cpu.commit.committed_per_cycle::6        46818      0.98%     80.17% # Number of insts commited each cycle
system.cpu.commit.committed_per_cycle::7        45098      0.94%     81.11% # Number of insts commited each cycle
system.cpu.commit.committed_per_cycle::8       903869     18.89%    100.00% # Number of insts commited each cycle
system.cpu.commit.committed_per_cycle::overflows            0      0.00%    100.00% # Number of insts commited each cycle
system.cpu.commit.committed_per_cycle::min_value            0                       # Number of insts commited each cycle
system.cpu.commit.committed_per_cycle::max_value            8                       # Number of insts commited each cycle
system.cpu.commit.committed_per_cycle::total      4785006                       # Number of insts commited each cycle
system.cpu.commit.fp_insts                          0                       # Number of committed floating point instructions.
system.cpu.commit.function_calls                 9208                       # Number of function calls committed.
system.cpu.commit.int_insts                   9309990                       # Number of committed integer instructions.
system.cpu.commit.loads                       3851688                       # Number of loads committed
system.cpu.commit.membars                          36                       # Number of memory barriers committed
system.cpu.commit.op_class_0::No_OpClass            9      0.00%      0.00% # Class of committed instruction
system.cpu.commit.op_class_0::IntAlu          4977792     47.31%     47.31% # Class of committed instruction
system.cpu.commit.op_class_0::IntMult              63      0.00%     47.31% # Class of committed instruction
system.cpu.commit.op_class_0::IntDiv                3      0.00%     47.31% # Class of committed instruction
system.cpu.commit.op_class_0::FloatAdd              0      0.00%     47.31% # Class of committed instruction
system.cpu.commit.op_class_0::FloatCmp              0      0.00%     47.31% # Class of committed instruction
system.cpu.commit.op_class_0::FloatCvt              0      0.00%     47.31% # Class of committed instruction
system.cpu.commit.op_class_0::FloatMult             0      0.00%     47.31% # Class of committed instruction
system.cpu.commit.op_class_0::FloatMultAcc            0      0.00%     47.31% # Class of committed instruction
system.cpu.commit.op_class_0::FloatDiv              0      0.00%     47.31% # Class of committed instruction
system.cpu.commit.op_class_0::FloatMisc             0      0.00%     47.31% # Class of committed instruction
system.cpu.commit.op_class_0::FloatSqrt             0      0.00%     47.31% # Class of committed instruction
system.cpu.commit.op_class_0::SimdAdd              29      0.00%     47.31% # Class of committed instruction
system.cpu.commit.op_class_0::SimdAddAcc            0      0.00%     47.31% # Class of committed instruction
system.cpu.commit.op_class_0::SimdAlu              34      0.00%     47.31% # Class of committed instruction
system.cpu.commit.op_class_0::SimdCmp              36      0.00%     47.31% # Class of committed instruction
system.cpu.commit.op_class_0::SimdCvt               0      0.00%     47.31% # Class of committed instruction
system.cpu.commit.op_class_0::SimdMisc             26      0.00%     47.31% # Class of committed instruction
system.cpu.commit.op_class_0::SimdMult              0      0.00%     47.31% # Class of committed instruction
system.cpu.commit.op_class_0::SimdMultAcc            0      0.00%     47.31% # Class of committed instruction
system.cpu.commit.op_class_0::SimdShift             0      0.00%     47.31% # Class of committed instruction
system.cpu.commit.op_class_0::SimdShiftAcc            0      0.00%     47.31% # Class of committed instruction
system.cpu.commit.op_class_0::SimdDiv               0      0.00%     47.31% # Class of committed instruction
system.cpu.commit.op_class_0::SimdSqrt              0      0.00%     47.31% # Class of committed instruction
system.cpu.commit.op_class_0::SimdFloatAdd            0      0.00%     47.31% # Class of committed instruction
system.cpu.commit.op_class_0::SimdFloatAlu            0      0.00%     47.31% # Class of committed instruction
system.cpu.commit.op_class_0::SimdFloatCmp            0      0.00%     47.31% # Class of committed instruction
system.cpu.commit.op_class_0::SimdFloatCvt            0      0.00%     47.31% # Class of committed instruction
system.cpu.commit.op_class_0::SimdFloatDiv            0      0.00%     47.31% # Class of committed instruction
system.cpu.commit.op_class_0::SimdFloatMisc            0      0.00%     47.31% # Class of committed instruction
system.cpu.commit.op_class_0::SimdFloatMult            0      0.00%     47.31% # Class of committed instruction
system.cpu.commit.op_class_0::SimdFloatMultAcc            0      0.00%     47.31% # Class of committed instruction
system.cpu.commit.op_class_0::SimdFloatSqrt            0      0.00%     47.31% # Class of committed instruction
system.cpu.commit.op_class_0::SimdReduceAdd            0      0.00%     47.31% # Class of committed instruction
system.cpu.commit.op_class_0::SimdReduceAlu            0      0.00%     47.31% # Class of committed instruction
system.cpu.commit.op_class_0::SimdReduceCmp            0      0.00%     47.31% # Class of committed instruction
system.cpu.commit.op_class_0::SimdFloatReduceAdd            0      0.00%     47.31% # Class of committed instruction
system.cpu.commit.op_class_0::SimdFloatReduceCmp            0      0.00%     47.31% # Class of committed instruction
system.cpu.commit.op_class_0::SimdAes               0      0.00%     47.31% # Class of committed instruction
system.cpu.commit.op_class_0::SimdAesMix            0      0.00%     47.31% # Class of committed instruction
system.cpu.commit.op_class_0::SimdSha1Hash            0      0.00%     47.31% # Class of committed instruction
system.cpu.commit.op_class_0::SimdSha1Hash2            0      0.00%     47.31% # Class of committed instruction
system.cpu.commit.op_class_0::SimdSha256Hash            0      0.00%     47.31% # Class of committed instruction
system.cpu.commit.op_class_0::SimdSha256Hash2            0      0.00%     47.31% # Class of committed instruction
system.cpu.commit.op_class_0::SimdShaSigma2            0      0.00%     47.31% # Class of committed instruction
system.cpu.commit.op_class_0::SimdShaSigma3            0      0.00%     47.31% # Class of committed instruction
system.cpu.commit.op_class_0::SimdPredAlu            0      0.00%     47.31% # Class of committed instruction
system.cpu.commit.op_class_0::MemRead         3851688     36.61%     83.91% # Class of committed instruction
system.cpu.commit.op_class_0::MemWrite        1692598     16.09%    100.00% # Class of committed instruction
system.cpu.commit.op_class_0::FloatMemRead            0      0.00%    100.00% # Class of committed instruction
system.cpu.commit.op_class_0::FloatMemWrite            0      0.00%    100.00% # Class of committed instruction
system.cpu.commit.op_class_0::IprAccess             0      0.00%    100.00% # Class of committed instruction
system.cpu.commit.op_class_0::InstPrefetch            0      0.00%    100.00% # Class of committed instruction
system.cpu.commit.op_class_0::total          10522278                       # Class of committed instruction
system.cpu.commit.refs                        5544286                       # Number of memory references committed
system.cpu.commit.swp_count                         0                       # Number of s/w prefetches committed
system.cpu.commit.vec_insts                       224                       # Number of committed Vector instructions.
system.cpu.committedInsts                    10000005                       # Number of Instructions Simulated
system.cpu.committedOps                      10513546                       # Number of Ops (including micro ops) Simulated
system.cpu.cpi                               0.493909                       # CPI: Cycles Per Instruction
system.cpu.cpi_total                         0.493909                       # CPI: Total CPI of All Threads
system.cpu.decode.BlockedCycles               1477639                       # Number of cycles decode is blocked
system.cpu.decode.BranchMispred                   229                       # Number of times decode detected a branch misprediction
system.cpu.decode.BranchResolved               818357                       # Number of times decode resolved a branch
system.cpu.decode.DecodedInsts               11513166                       # Number of instructions handled by decode
system.cpu.decode.IdleCycles                  1190169                       # Number of cycles decode is idle
system.cpu.decode.RunCycles                   1916482                       # Number of cycles decode is running
system.cpu.decode.SquashCycles                  20955                       # Number of cycles decode is squashing
system.cpu.decode.SquashedInsts                   801                       # Number of squashed instructions handled by decode
system.cpu.decode.UnblockCycles                291398                       # Number of cycles decode is unblocking
system.cpu.dtb.accesses                             0                       # DTB accesses
system.cpu.dtb.align_faults                         0                       # Number of TLB faults due to alignment restrictions
system.cpu.dtb.domain_faults                        0                       # Number of TLB faults due to domain restrictions
system.cpu.dtb.flush_entries                        0                       # Number of entries that have been flushed from TLB
system.cpu.dtb.flush_tlb                            0                       # Number of times complete TLB was flushed
system.cpu.dtb.flush_tlb_asid                       0                       # Number of times TLB was flushed by ASID
system.cpu.dtb.flush_tlb_mva                        0                       # Number of times TLB was flushed by MVA
system.cpu.dtb.flush_tlb_mva_asid                   0                       # Number of times TLB was flushed by MVA & ASID
system.cpu.dtb.hits                                 0                       # DTB hits
system.cpu.dtb.inst_accesses                        0                       # ITB inst accesses
system.cpu.dtb.inst_hits                            0                       # ITB inst hits
system.cpu.dtb.inst_misses                          0                       # ITB inst misses
system.cpu.dtb.misses                               0                       # DTB misses
system.cpu.dtb.perms_faults                         0                       # Number of TLB faults due to permissions restrictions
system.cpu.dtb.prefetch_faults                      0                       # Number of TLB faults due to prefetch
system.cpu.dtb.read_accesses                        0                       # DTB read accesses
system.cpu.dtb.read_hits                            0                       # DTB read hits
system.cpu.dtb.read_misses                          0                       # DTB read misses
system.cpu.dtb.stage2_mmu.stage2_tlb.accesses            0                       # DTB accesses
system.cpu.dtb.stage2_mmu.stage2_tlb.align_faults            0                       # Number of TLB faults due to alignment restrictions
system.cpu.dtb.stage2_mmu.stage2_tlb.domain_faults            0                       # Number of TLB faults due to domain restrictions
system.cpu.dtb.stage2_mmu.stage2_tlb.flush_entries            0                       # Number of entries that have been flushed from TLB
system.cpu.dtb.stage2_mmu.stage2_tlb.flush_tlb            0                       # Number of times complete TLB was flushed
system.cpu.dtb.stage2_mmu.stage2_tlb.flush_tlb_asid            0                       # Number of times TLB was flushed by ASID
system.cpu.dtb.stage2_mmu.stage2_tlb.flush_tlb_mva            0                       # Number of times TLB was flushed by MVA
system.cpu.dtb.stage2_mmu.stage2_tlb.flush_tlb_mva_asid            0                       # Number of times TLB was flushed by MVA & ASID
system.cpu.dtb.stage2_mmu.stage2_tlb.hits            0                       # DTB hits
system.cpu.dtb.stage2_mmu.stage2_tlb.inst_accesses            0                       # ITB inst accesses
system.cpu.dtb.stage2_mmu.stage2_tlb.inst_hits            0                       # ITB inst hits
system.cpu.dtb.stage2_mmu.stage2_tlb.inst_misses            0                       # ITB inst misses
system.cpu.dtb.stage2_mmu.stage2_tlb.misses            0                       # DTB misses
system.cpu.dtb.stage2_mmu.stage2_tlb.perms_faults            0                       # Number of TLB faults due to permissions restrictions
system.cpu.dtb.stage2_mmu.stage2_tlb.prefetch_faults            0                       # Number of TLB faults due to prefetch
system.cpu.dtb.stage2_mmu.stage2_tlb.read_accesses            0                       # DTB read accesses
system.cpu.dtb.stage2_mmu.stage2_tlb.read_hits            0                       # DTB read hits
system.cpu.dtb.stage2_mmu.stage2_tlb.read_misses            0                       # DTB read misses
system.cpu.dtb.stage2_mmu.stage2_tlb.walker.walkRequestOrigin_Requested::Data            0                       # Table walker requests started/completed, data/inst
system.cpu.dtb.stage2_mmu.stage2_tlb.walker.walkRequestOrigin_Requested::Inst            0                       # Table walker requests started/completed, data/inst
system.cpu.dtb.stage2_mmu.stage2_tlb.walker.walkRequestOrigin_Requested::total            0                       # Table walker requests started/completed, data/inst
system.cpu.dtb.stage2_mmu.stage2_tlb.walker.walkRequestOrigin_Completed::Data            0                       # Table walker requests started/completed, data/inst
system.cpu.dtb.stage2_mmu.stage2_tlb.walker.walkRequestOrigin_Completed::Inst            0                       # Table walker requests started/completed, data/inst
system.cpu.dtb.stage2_mmu.stage2_tlb.walker.walkRequestOrigin_Completed::total            0                       # Table walker requests started/completed, data/inst
system.cpu.dtb.stage2_mmu.stage2_tlb.walker.walkRequestOrigin::total            0                       # Table walker requests started/completed, data/inst
system.cpu.dtb.stage2_mmu.stage2_tlb.walker.walks            0                       # Table walker walks requested
system.cpu.dtb.stage2_mmu.stage2_tlb.write_accesses            0                       # DTB write accesses
system.cpu.dtb.stage2_mmu.stage2_tlb.write_hits            0                       # DTB write hits
system.cpu.dtb.stage2_mmu.stage2_tlb.write_misses            0                       # DTB write misses
system.cpu.dtb.walker.walkRequestOrigin_Requested::Data            0                       # Table walker requests started/completed, data/inst
system.cpu.dtb.walker.walkRequestOrigin_Requested::Inst            0                       # Table walker requests started/completed, data/inst
system.cpu.dtb.walker.walkRequestOrigin_Requested::total            0                       # Table walker requests started/completed, data/inst
system.cpu.dtb.walker.walkRequestOrigin_Completed::Data            0                       # Table walker requests started/completed, data/inst
system.cpu.dtb.walker.walkRequestOrigin_Completed::Inst            0                       # Table walker requests started/completed, data/inst
system.cpu.dtb.walker.walkRequestOrigin_Completed::total            0                       # Table walker requests started/completed, data/inst
system.cpu.dtb.walker.walkRequestOrigin::total            0                       # Table walker requests started/completed, data/inst
system.cpu.dtb.walker.walks                         0                       # Table walker walks requested
system.cpu.dtb.write_accesses                       0                       # DTB write accesses
system.cpu.dtb.write_hits                           0                       # DTB write hits
system.cpu.dtb.write_misses                         0                       # DTB write misses
system.cpu.fetch.Branches                     1844939                       # Number of branches that fetch encountered
system.cpu.fetch.CacheLines                   1611344                       # Number of cache lines fetched
system.cpu.fetch.Cycles                       3243375                       # Number of cycles fetch has run and was not squashing or blocked
system.cpu.fetch.IcacheSquashes                  6779                       # Number of outstanding Icache misses that were squashed
system.cpu.fetch.IcacheWaitRetryStallCycles           34                       # Number of stall cycles due to full MSHR
system.cpu.fetch.Insts                       11131235                       # Number of instructions fetch has processed
system.cpu.fetch.MiscStallCycles                    2                       # Number of cycles fetch has spent waiting on interrupts, or bad addresses, or out of MSHRs
system.cpu.fetch.SquashCycles                   42364                       # Number of cycles fetch has spent squashing
system.cpu.fetch.branchRate                  0.373538                       # Number of branch fetches per cycle
system.cpu.fetch.icacheStallCycles            1632050                       # Number of cycles fetch is stalled on an Icache miss
system.cpu.fetch.predictedBranches             847078                       # Number of branches that fetch has predicted taken
system.cpu.fetch.rate                        2.253703                       # Number of inst fetches per cycle
system.cpu.fetch.rateDist::samples            4896643                       # Number of instructions fetched each cycle (Total)
system.cpu.fetch.rateDist::mean              2.386066                       # Number of instructions fetched each cycle (Total)
system.cpu.fetch.rateDist::stdev             3.196087                       # Number of instructions fetched each cycle (Total)
system.cpu.fetch.rateDist::underflows               0      0.00%      0.00% # Number of instructions fetched each cycle (Total)
system.cpu.fetch.rateDist::0                  2297132     46.91%     46.91% # Number of instructions fetched each cycle (Total)
system.cpu.fetch.rateDist::1                   944710     19.29%     66.21% # Number of instructions fetched each cycle (Total)
system.cpu.fetch.rateDist::2                   152667      3.12%     69.32% # Number of instructions fetched each cycle (Total)
system.cpu.fetch.rateDist::3                    25057      0.51%     69.83% # Number of instructions fetched each cycle (Total)
system.cpu.fetch.rateDist::4                   230793      4.71%     74.55% # Number of instructions fetched each cycle (Total)
system.cpu.fetch.rateDist::5                   109274      2.23%     76.78% # Number of instructions fetched each cycle (Total)
system.cpu.fetch.rateDist::6                    14978      0.31%     77.09% # Number of instructions fetched each cycle (Total)
system.cpu.fetch.rateDist::7                   177167      3.62%     80.70% # Number of instructions fetched each cycle (Total)
system.cpu.fetch.rateDist::8                   944865     19.30%    100.00% # Number of instructions fetched each cycle (Total)
system.cpu.fetch.rateDist::overflows                0      0.00%    100.00% # Number of instructions fetched each cycle (Total)
system.cpu.fetch.rateDist::min_value                0                       # Number of instructions fetched each cycle (Total)
system.cpu.fetch.rateDist::max_value                8                       # Number of instructions fetched each cycle (Total)
system.cpu.fetch.rateDist::total              4896643                       # Number of instructions fetched each cycle (Total)
system.cpu.idleCycles                           42445                       # Total number of cycles that the CPU has spent unscheduled due to idling
system.cpu.iew.branchMispredicts                20143                       # Number of branch mispredicts detected at execute
system.cpu.iew.exec_branches                  1746064                       # Number of branches executed
system.cpu.iew.exec_nop                         10579                       # number of nop insts executed
system.cpu.iew.exec_rate                     2.360878                       # Inst execution rate
system.cpu.iew.exec_refs                      6417246                       # number of memory reference insts executed
system.cpu.iew.exec_stores                    1779936                       # Number of stores executed
system.cpu.iew.exec_swp                             0                       # number of swp insts executed
system.cpu.iew.iewBlockCycles                  109161                       # Number of cycles IEW is blocking
system.cpu.iew.iewDispLoadInsts               4109166                       # Number of dispatched load instructions
system.cpu.iew.iewDispNonSpecInsts                 80                       # Number of dispatched non-speculative instructions
system.cpu.iew.iewDispSquashedInsts              3510                       # Number of squashed instructions skipped by dispatch
system.cpu.iew.iewDispStoreInsts              1844387                       # Number of dispatched store instructions
system.cpu.iew.iewDispatchedInsts            11334960                       # Number of instructions dispatched to IQ
system.cpu.iew.iewExecLoadInsts               4637310                       # Number of load instructions executed
system.cpu.iew.iewExecSquashedInsts             33995                       # Number of squashed instructions skipped in execute
system.cpu.iew.iewExecutedInsts              11660585                       # Number of executed instructions
system.cpu.iew.iewIQFullEvents                     17                       # Number of times the IQ has become full, causing a stall
system.cpu.iew.iewIdleCycles                        0                       # Number of cycles IEW is idle
system.cpu.iew.iewLSQFullEvents                126138                       # Number of times the LSQ has become full, causing a stall
system.cpu.iew.iewSquashCycles                  20955                       # Number of cycles IEW is squashing
system.cpu.iew.iewUnblockCycles                125811                       # Number of cycles IEW is unblocking
system.cpu.iew.lsq.thread0.blockedLoads             0                       # Number of blocked loads due to partial load-store forwarding
system.cpu.iew.lsq.thread0.cacheBlocked          4173                       # Number of times an access to memory failed due to the cache being blocked
system.cpu.iew.lsq.thread0.forwLoads          1182927                       # Number of loads that had data forwarded from stores
system.cpu.iew.lsq.thread0.ignoredResponses          861                       # Number of memory responses ignored because the instruction is squashed
system.cpu.iew.lsq.thread0.invAddrLoads             0                       # Number of loads ignored due to an invalid address
system.cpu.iew.lsq.thread0.invAddrSwpfs             0                       # Number of software prefetches ignored due to an invalid address
system.cpu.iew.lsq.thread0.memOrderViolation          290                       # Number of memory ordering violations
system.cpu.iew.lsq.thread0.rescheduledLoads       555543                       # Number of loads that were rescheduled
system.cpu.iew.lsq.thread0.squashedLoads       257460                       # Number of loads squashed
system.cpu.iew.lsq.thread0.squashedStores       151780                       # Number of stores squashed
system.cpu.iew.memOrderViolationEvents            290                       # Number of memory order violations
system.cpu.iew.predictedNotTakenIncorrect        12816                       # Number of branches that were predicted not taken incorrectly
system.cpu.iew.predictedTakenIncorrect           7327                       # Number of branches that were predicted taken incorrectly
system.cpu.iew.wb_consumers                  11489415                       # num instructions consuming a value
system.cpu.iew.wb_count                      10997981                       # cumulative count of insts written-back
system.cpu.iew.wb_fanout                     0.619536                       # average fanout of values written-back
system.cpu.iew.wb_producers                   7118108                       # num instructions producing a value
system.cpu.iew.wb_rate                       2.226723                       # insts written-back per cycle
system.cpu.iew.wb_sent                       11030156                       # cumulative count of insts sent to commit
system.cpu.int_regfile_reads                 13565152                       # number of integer regfile reads
system.cpu.int_regfile_writes                 7982220                       # number of integer regfile writes
system.cpu.ipc                               2.024666                       # IPC: Instructions Per Cycle
system.cpu.ipc_total                         2.024666                       # IPC: Total IPC of All Threads
system.cpu.iq.FU_type_0::No_OpClass                10      0.00%      0.00% # Type of FU issued
system.cpu.iq.FU_type_0::IntAlu               5252962     44.92%     44.92% # Type of FU issued
system.cpu.iq.FU_type_0::IntMult                   67      0.00%     44.92% # Type of FU issued
system.cpu.iq.FU_type_0::IntDiv                     5      0.00%     44.92% # Type of FU issued
system.cpu.iq.FU_type_0::FloatAdd                   0      0.00%     44.92% # Type of FU issued
system.cpu.iq.FU_type_0::FloatCmp                   0      0.00%     44.92% # Type of FU issued
system.cpu.iq.FU_type_0::FloatCvt                   0      0.00%     44.92% # Type of FU issued
system.cpu.iq.FU_type_0::FloatMult                  0      0.00%     44.92% # Type of FU issued
system.cpu.iq.FU_type_0::FloatMultAcc               0      0.00%     44.92% # Type of FU issued
system.cpu.iq.FU_type_0::FloatDiv                   0      0.00%     44.92% # Type of FU issued
system.cpu.iq.FU_type_0::FloatMisc                  0      0.00%     44.92% # Type of FU issued
system.cpu.iq.FU_type_0::FloatSqrt                  0      0.00%     44.92% # Type of FU issued
system.cpu.iq.FU_type_0::SimdAdd                   35      0.00%     44.92% # Type of FU issued
system.cpu.iq.FU_type_0::SimdAddAcc                 0      0.00%     44.92% # Type of FU issued
system.cpu.iq.FU_type_0::SimdAlu                   38      0.00%     44.92% # Type of FU issued
system.cpu.iq.FU_type_0::SimdCmp                   40      0.00%     44.92% # Type of FU issued
system.cpu.iq.FU_type_0::SimdCvt                    0      0.00%     44.92% # Type of FU issued
system.cpu.iq.FU_type_0::SimdMisc                  28      0.00%     44.92% # Type of FU issued
system.cpu.iq.FU_type_0::SimdMult                   0      0.00%     44.92% # Type of FU issued
system.cpu.iq.FU_type_0::SimdMultAcc                0      0.00%     44.92% # Type of FU issued
system.cpu.iq.FU_type_0::SimdShift                  0      0.00%     44.92% # Type of FU issued
system.cpu.iq.FU_type_0::SimdShiftAcc               0      0.00%     44.92% # Type of FU issued
system.cpu.iq.FU_type_0::SimdDiv                    0      0.00%     44.92% # Type of FU issued
system.cpu.iq.FU_type_0::SimdSqrt                   0      0.00%     44.92% # Type of FU issued
system.cpu.iq.FU_type_0::SimdFloatAdd               0      0.00%     44.92% # Type of FU issued
system.cpu.iq.FU_type_0::SimdFloatAlu               0      0.00%     44.92% # Type of FU issued
system.cpu.iq.FU_type_0::SimdFloatCmp               0      0.00%     44.92% # Type of FU issued
system.cpu.iq.FU_type_0::SimdFloatCvt               0      0.00%     44.92% # Type of FU issued
system.cpu.iq.FU_type_0::SimdFloatDiv               0      0.00%     44.92% # Type of FU issued
system.cpu.iq.FU_type_0::SimdFloatMisc              0      0.00%     44.92% # Type of FU issued
system.cpu.iq.FU_type_0::SimdFloatMult              0      0.00%     44.92% # Type of FU issued
system.cpu.iq.FU_type_0::SimdFloatMultAcc            0      0.00%     44.92% # Type of FU issued
system.cpu.iq.FU_type_0::SimdFloatSqrt              0      0.00%     44.92% # Type of FU issued
system.cpu.iq.FU_type_0::SimdReduceAdd              0      0.00%     44.92% # Type of FU issued
system.cpu.iq.FU_type_0::SimdReduceAlu              0      0.00%     44.92% # Type of FU issued
system.cpu.iq.FU_type_0::SimdReduceCmp              0      0.00%     44.92% # Type of FU issued
system.cpu.iq.FU_type_0::SimdFloatReduceAdd            0      0.00%     44.92% # Type of FU issued
system.cpu.iq.FU_type_0::SimdFloatReduceCmp            0      0.00%     44.92% # Type of FU issued
system.cpu.iq.FU_type_0::SimdAes                    0      0.00%     44.92% # Type of FU issued
system.cpu.iq.FU_type_0::SimdAesMix                 0      0.00%     44.92% # Type of FU issued
system.cpu.iq.FU_type_0::SimdSha1Hash               0      0.00%     44.92% # Type of FU issued
system.cpu.iq.FU_type_0::SimdSha1Hash2              0      0.00%     44.92% # Type of FU issued
system.cpu.iq.FU_type_0::SimdSha256Hash             0      0.00%     44.92% # Type of FU issued
system.cpu.iq.FU_type_0::SimdSha256Hash2            0      0.00%     44.92% # Type of FU issued
system.cpu.iq.FU_type_0::SimdShaSigma2              0      0.00%     44.92% # Type of FU issued
system.cpu.iq.FU_type_0::SimdShaSigma3              0      0.00%     44.92% # Type of FU issued
system.cpu.iq.FU_type_0::SimdPredAlu                0      0.00%     44.92% # Type of FU issued
system.cpu.iq.FU_type_0::MemRead              4656411     39.82%     84.74% # Type of FU issued
system.cpu.iq.FU_type_0::MemWrite             1784985     15.26%    100.00% # Type of FU issued
system.cpu.iq.FU_type_0::FloatMemRead               0      0.00%    100.00% # Type of FU issued
system.cpu.iq.FU_type_0::FloatMemWrite              0      0.00%    100.00% # Type of FU issued
system.cpu.iq.FU_type_0::IprAccess                  0      0.00%    100.00% # Type of FU issued
system.cpu.iq.FU_type_0::InstPrefetch               0      0.00%    100.00% # Type of FU issued
system.cpu.iq.FU_type_0::total               11694581                       # Type of FU issued
system.cpu.iq.fp_alu_accesses                       0                       # Number of floating point alu accesses
system.cpu.iq.fp_inst_queue_reads                   0                       # Number of floating instruction queue reads
system.cpu.iq.fp_inst_queue_wakeup_accesses            0                       # Number of floating instruction queue wakeup accesses
system.cpu.iq.fp_inst_queue_writes                  0                       # Number of floating instruction queue writes
system.cpu.iq.fu_busy_cnt                      148527                       # FU busy when requested
system.cpu.iq.fu_busy_rate                   0.012700                       # FU busy rate (busy events/executed inst)
system.cpu.iq.fu_full::No_OpClass                   0      0.00%      0.00% # attempts to use FU when none available
system.cpu.iq.fu_full::IntAlu                   17886     12.04%     12.04% # attempts to use FU when none available
system.cpu.iq.fu_full::IntMult                      0      0.00%     12.04% # attempts to use FU when none available
system.cpu.iq.fu_full::IntDiv                       0      0.00%     12.04% # attempts to use FU when none available
system.cpu.iq.fu_full::FloatAdd                     0      0.00%     12.04% # attempts to use FU when none available
system.cpu.iq.fu_full::FloatCmp                     0      0.00%     12.04% # attempts to use FU when none available
system.cpu.iq.fu_full::FloatCvt                     0      0.00%     12.04% # attempts to use FU when none available
system.cpu.iq.fu_full::FloatMult                    0      0.00%     12.04% # attempts to use FU when none available
system.cpu.iq.fu_full::FloatMultAcc                 0      0.00%     12.04% # attempts to use FU when none available
system.cpu.iq.fu_full::FloatDiv                     0      0.00%     12.04% # attempts to use FU when none available
system.cpu.iq.fu_full::FloatMisc                    0      0.00%     12.04% # attempts to use FU when none available
system.cpu.iq.fu_full::FloatSqrt                    0      0.00%     12.04% # attempts to use FU when none available
system.cpu.iq.fu_full::SimdAdd                      0      0.00%     12.04% # attempts to use FU when none available
system.cpu.iq.fu_full::SimdAddAcc                   0      0.00%     12.04% # attempts to use FU when none available
system.cpu.iq.fu_full::SimdAlu                      2      0.00%     12.04% # attempts to use FU when none available
system.cpu.iq.fu_full::SimdCmp                      3      0.00%     12.05% # attempts to use FU when none available
system.cpu.iq.fu_full::SimdCvt                      0      0.00%     12.05% # attempts to use FU when none available
system.cpu.iq.fu_full::SimdMisc                     0      0.00%     12.05% # attempts to use FU when none available
system.cpu.iq.fu_full::SimdMult                     0      0.00%     12.05% # attempts to use FU when none available
system.cpu.iq.fu_full::SimdMultAcc                  0      0.00%     12.05% # attempts to use FU when none available
system.cpu.iq.fu_full::SimdShift                    0      0.00%     12.05% # attempts to use FU when none available
system.cpu.iq.fu_full::SimdShiftAcc                 0      0.00%     12.05% # attempts to use FU when none available
system.cpu.iq.fu_full::SimdDiv                      0      0.00%     12.05% # attempts to use FU when none available
system.cpu.iq.fu_full::SimdSqrt                     0      0.00%     12.05% # attempts to use FU when none available
system.cpu.iq.fu_full::SimdFloatAdd                 0      0.00%     12.05% # attempts to use FU when none available
system.cpu.iq.fu_full::SimdFloatAlu                 0      0.00%     12.05% # attempts to use FU when none available
system.cpu.iq.fu_full::SimdFloatCmp                 0      0.00%     12.05% # attempts to use FU when none available
system.cpu.iq.fu_full::SimdFloatCvt                 0      0.00%     12.05% # attempts to use FU when none available
system.cpu.iq.fu_full::SimdFloatDiv                 0      0.00%     12.05% # attempts to use FU when none available
system.cpu.iq.fu_full::SimdFloatMisc                0      0.00%     12.05% # attempts to use FU when none available
system.cpu.iq.fu_full::SimdFloatMult                0      0.00%     12.05% # attempts to use FU when none available
system.cpu.iq.fu_full::SimdFloatMultAcc             0      0.00%     12.05% # attempts to use FU when none available
system.cpu.iq.fu_full::SimdFloatSqrt                0      0.00%     12.05% # attempts to use FU when none available
system.cpu.iq.fu_full::SimdReduceAdd                0      0.00%     12.05% # attempts to use FU when none available
system.cpu.iq.fu_full::SimdReduceAlu                0      0.00%     12.05% # attempts to use FU when none available
system.cpu.iq.fu_full::SimdReduceCmp                0      0.00%     12.05% # attempts to use FU when none available
system.cpu.iq.fu_full::SimdFloatReduceAdd            0      0.00%     12.05% # attempts to use FU when none available
system.cpu.iq.fu_full::SimdFloatReduceCmp            0      0.00%     12.05% # attempts to use FU when none available
system.cpu.iq.fu_full::SimdAes                      0      0.00%     12.05% # attempts to use FU when none available
system.cpu.iq.fu_full::SimdAesMix                   0      0.00%     12.05% # attempts to use FU when none available
system.cpu.iq.fu_full::SimdSha1Hash                 0      0.00%     12.05% # attempts to use FU when none available
system.cpu.iq.fu_full::SimdSha1Hash2                0      0.00%     12.05% # attempts to use FU when none available
system.cpu.iq.fu_full::SimdSha256Hash               0      0.00%     12.05% # attempts to use FU when none available
system.cpu.iq.fu_full::SimdSha256Hash2              0      0.00%     12.05% # attempts to use FU when none available
system.cpu.iq.fu_full::SimdShaSigma2                0      0.00%     12.05% # attempts to use FU when none available
system.cpu.iq.fu_full::SimdShaSigma3                0      0.00%     12.05% # attempts to use FU when none available
system.cpu.iq.fu_full::SimdPredAlu                  0      0.00%     12.05% # attempts to use FU when none available
system.cpu.iq.fu_full::MemRead                 123696     83.28%     95.33% # attempts to use FU when none available
system.cpu.iq.fu_full::MemWrite                  6940      4.67%    100.00% # attempts to use FU when none available
system.cpu.iq.fu_full::FloatMemRead                 0      0.00%    100.00% # attempts to use FU when none available
system.cpu.iq.fu_full::FloatMemWrite                0      0.00%    100.00% # attempts to use FU when none available
system.cpu.iq.fu_full::IprAccess                    0      0.00%    100.00% # attempts to use FU when none available
system.cpu.iq.fu_full::InstPrefetch                 0      0.00%    100.00% # attempts to use FU when none available
system.cpu.iq.int_alu_accesses               11842804                       # Number of integer alu accesses
system.cpu.iq.int_inst_queue_reads           28434099                       # Number of integer instruction queue reads
system.cpu.iq.int_inst_queue_wakeup_accesses     10997727                       # Number of integer instruction queue wakeup accesses
system.cpu.iq.int_inst_queue_writes          12134925                       # Number of integer instruction queue writes
system.cpu.iq.iqInstsAdded                   11324301                       # Number of instructions added to the IQ (excludes non-spec)
system.cpu.iq.iqInstsIssued                  11694581                       # Number of instructions issued
system.cpu.iq.iqNonSpecInstsAdded                  80                       # Number of non-speculative instructions added to the IQ
system.cpu.iq.iqSquashedInstsExamined          810786                       # Number of squashed instructions iterated over during squash; mainly for profiling
system.cpu.iq.iqSquashedInstsIssued               370                       # Number of squashed instructions issued
system.cpu.iq.iqSquashedNonSpecRemoved             20                       # Number of squashed non-spec instructions that were removed
system.cpu.iq.iqSquashedOperandsExamined       545806                       # Number of squashed operands that are examined and possibly removed from graph
system.cpu.iq.issued_per_cycle::samples       4896643                       # Number of insts issued each cycle
system.cpu.iq.issued_per_cycle::mean         2.388285                       # Number of insts issued each cycle
system.cpu.iq.issued_per_cycle::stdev        2.044375                       # Number of insts issued each cycle
system.cpu.iq.issued_per_cycle::underflows            0      0.00%      0.00% # Number of insts issued each cycle
system.cpu.iq.issued_per_cycle::0             1113308     22.74%     22.74% # Number of insts issued each cycle
system.cpu.iq.issued_per_cycle::1              727134     14.85%     37.59% # Number of insts issued each cycle
system.cpu.iq.issued_per_cycle::2             1032140     21.08%     58.66% # Number of insts issued each cycle
system.cpu.iq.issued_per_cycle::3              704740     14.39%     73.06% # Number of insts issued each cycle
system.cpu.iq.issued_per_cycle::4              595871     12.17%     85.23% # Number of insts issued each cycle
system.cpu.iq.issued_per_cycle::5              288505      5.89%     91.12% # Number of insts issued each cycle
system.cpu.iq.issued_per_cycle::6              181652      3.71%     94.83% # Number of insts issued each cycle
system.cpu.iq.issued_per_cycle::7              153318      3.13%     97.96% # Number of insts issued each cycle
system.cpu.iq.issued_per_cycle::8               99975      2.04%    100.00% # Number of insts issued each cycle
system.cpu.iq.issued_per_cycle::overflows            0      0.00%    100.00% # Number of insts issued each cycle
system.cpu.iq.issued_per_cycle::min_value            0                       # Number of insts issued each cycle
system.cpu.iq.issued_per_cycle::max_value            8                       # Number of insts issued each cycle
system.cpu.iq.issued_per_cycle::total         4896643                       # Number of insts issued each cycle
system.cpu.iq.rate                           2.367761                       # Inst issue rate
system.cpu.iq.vec_alu_accesses                    294                       # Number of vector alu accesses
system.cpu.iq.vec_inst_queue_reads                602                       # Number of vector instruction queue reads
system.cpu.iq.vec_inst_queue_wakeup_accesses          254                       # Number of vector instruction queue wakeup accesses
system.cpu.iq.vec_inst_queue_writes               510                       # Number of vector instruction queue writes
system.cpu.itb.accesses                             0                       # DTB accesses
system.cpu.itb.align_faults                         0                       # Number of TLB faults due to alignment restrictions
system.cpu.itb.domain_faults                        0                       # Number of TLB faults due to domain restrictions
system.cpu.itb.flush_entries                        0                       # Number of entries that have been flushed from TLB
system.cpu.itb.flush_tlb                            0                       # Number of times complete TLB was flushed
system.cpu.itb.flush_tlb_asid                       0                       # Number of times TLB was flushed by ASID
system.cpu.itb.flush_tlb_mva                        0                       # Number of times TLB was flushed by MVA
system.cpu.itb.flush_tlb_mva_asid                   0                       # Number of times TLB was flushed by MVA & ASID
system.cpu.itb.hits                                 0                       # DTB hits
system.cpu.itb.inst_accesses                        0                       # ITB inst accesses
system.cpu.itb.inst_hits                            0                       # ITB inst hits
system.cpu.itb.inst_misses                          0                       # ITB inst misses
system.cpu.itb.misses                               0                       # DTB misses
system.cpu.itb.perms_faults                         0                       # Number of TLB faults due to permissions restrictions
system.cpu.itb.prefetch_faults                      0                       # Number of TLB faults due to prefetch
system.cpu.itb.read_accesses                        0                       # DTB read accesses
system.cpu.itb.read_hits                            0                       # DTB read hits
system.cpu.itb.read_misses                          0                       # DTB read misses
system.cpu.itb.stage2_mmu.stage2_tlb.accesses            0                       # DTB accesses
system.cpu.itb.stage2_mmu.stage2_tlb.align_faults            0                       # Number of TLB faults due to alignment restrictions
system.cpu.itb.stage2_mmu.stage2_tlb.domain_faults            0                       # Number of TLB faults due to domain restrictions
system.cpu.itb.stage2_mmu.stage2_tlb.flush_entries            0                       # Number of entries that have been flushed from TLB
system.cpu.itb.stage2_mmu.stage2_tlb.flush_tlb            0                       # Number of times complete TLB was flushed
system.cpu.itb.stage2_mmu.stage2_tlb.flush_tlb_asid            0                       # Number of times TLB was flushed by ASID
system.cpu.itb.stage2_mmu.stage2_tlb.flush_tlb_mva            0                       # Number of times TLB was flushed by MVA
system.cpu.itb.stage2_mmu.stage2_tlb.flush_tlb_mva_asid            0                       # Number of times TLB was flushed by MVA & ASID
system.cpu.itb.stage2_mmu.stage2_tlb.hits            0                       # DTB hits
system.cpu.itb.stage2_mmu.stage2_tlb.inst_accesses            0                       # ITB inst accesses
system.cpu.itb.stage2_mmu.stage2_tlb.inst_hits            0                       # ITB inst hits
system.cpu.itb.stage2_mmu.stage2_tlb.inst_misses            0                       # ITB inst misses
system.cpu.itb.stage2_mmu.stage2_tlb.misses            0                       # DTB misses
system.cpu.itb.stage2_mmu.stage2_tlb.perms_faults            0                       # Number of TLB faults due to permissions restrictions
system.cpu.itb.stage2_mmu.stage2_tlb.prefetch_faults            0                       # Number of TLB faults due to prefetch
system.cpu.itb.stage2_mmu.stage2_tlb.read_accesses            0                       # DTB read accesses
system.cpu.itb.stage2_mmu.stage2_tlb.read_hits            0                       # DTB read hits
system.cpu.itb.stage2_mmu.stage2_tlb.read_misses            0                       # DTB read misses
system.cpu.itb.stage2_mmu.stage2_tlb.walker.walkRequestOrigin_Requested::Data            0                       # Table walker requests started/completed, data/inst
system.cpu.itb.stage2_mmu.stage2_tlb.walker.walkRequestOrigin_Requested::Inst            0                       # Table walker requests started/completed, data/inst
system.cpu.itb.stage2_mmu.stage2_tlb.walker.walkRequestOrigin_Requested::total            0                       # Table walker requests started/completed, data/inst
system.cpu.itb.stage2_mmu.stage2_tlb.walker.walkRequestOrigin_Completed::Data            0                       # Table walker requests started/completed, data/inst
system.cpu.itb.stage2_mmu.stage2_tlb.walker.walkRequestOrigin_Completed::Inst            0                       # Table walker requests started/completed, data/inst
system.cpu.itb.stage2_mmu.stage2_tlb.walker.walkRequestOrigin_Completed::total            0                       # Table walker requests started/completed, data/inst
system.cpu.itb.stage2_mmu.stage2_tlb.walker.walkRequestOrigin::total            0                       # Table walker requests started/completed, data/inst
system.cpu.itb.stage2_mmu.stage2_tlb.walker.walks            0                       # Table walker walks requested
system.cpu.itb.stage2_mmu.stage2_tlb.write_accesses            0                       # DTB write accesses
system.cpu.itb.stage2_mmu.stage2_tlb.write_hits            0                       # DTB write hits
system.cpu.itb.stage2_mmu.stage2_tlb.write_misses            0                       # DTB write misses
system.cpu.itb.walker.walkRequestOrigin_Requested::Data            0                       # Table walker requests started/completed, data/inst
system.cpu.itb.walker.walkRequestOrigin_Requested::Inst            0                       # Table walker requests started/completed, data/inst
system.cpu.itb.walker.walkRequestOrigin_Requested::total            0                       # Table walker requests started/completed, data/inst
system.cpu.itb.walker.walkRequestOrigin_Completed::Data            0                       # Table walker requests started/completed, data/inst
system.cpu.itb.walker.walkRequestOrigin_Completed::Inst            0                       # Table walker requests started/completed, data/inst
system.cpu.itb.walker.walkRequestOrigin_Completed::total            0                       # Table walker requests started/completed, data/inst
system.cpu.itb.walker.walkRequestOrigin::total            0                       # Table walker requests started/completed, data/inst
system.cpu.itb.walker.walks                         0                       # Table walker walks requested
system.cpu.itb.write_accesses                       0                       # DTB write accesses
system.cpu.itb.write_hits                           0                       # DTB write hits
system.cpu.itb.write_misses                         0                       # DTB write misses
system.cpu.memDep0.conflictingLoads           1039155                       # Number of conflicting loads.
system.cpu.memDep0.conflictingStores           433846                       # Number of conflicting stores.
system.cpu.memDep0.insertedLoads              4109166                       # Number of loads inserted to the mem dependence unit.
system.cpu.memDep0.insertedStores             1844387                       # Number of stores inserted to the mem dependence unit.
system.cpu.misc_regfile_reads                 9605727                       # number of misc regfile reads
system.cpu.misc_regfile_writes                    145                       # number of misc regfile writes
system.cpu.numCycles                          4939088                       # number of cpu cycles simulated
system.cpu.numWorkItemsCompleted                    0                       # number of work items this cpu completed
system.cpu.numWorkItemsStarted                      0                       # number of work items this cpu started
system.cpu.rename.BlockCycles                  257180                       # Number of cycles rename is blocking
system.cpu.rename.CommittedMaps               9915304                       # Number of HB maps that are committed
system.cpu.rename.IQFullEvents                  29544                       # Number of times rename has blocked due to IQ full
system.cpu.rename.IdleCycles                  1339321                       # Number of cycles rename is idle
system.cpu.rename.LQFullEvents                 612627                       # Number of times rename has blocked due to LQ full
system.cpu.rename.ROBFullEvents                  1328                       # Number of times rename has blocked due to ROB full
system.cpu.rename.RenameLookups              15960029                       # Number of register rename lookups that rename has made
system.cpu.rename.RenamedInsts               11439780                       # Number of instructions processed by rename
system.cpu.rename.RenamedOperands            10793394                       # Number of destination operands rename has renamed
system.cpu.rename.RunCycles                   2054627                       # Number of cycles rename is running
system.cpu.rename.SQFullEvents                 478171                       # Number of times rename has blocked due to SQ full
system.cpu.rename.SquashCycles                  20955                       # Number of cycles rename is squashing
system.cpu.rename.UnblockCycles               1214543                       # Number of cycles rename is unblocking
system.cpu.rename.UndoneMaps                   878036                       # Number of HB maps that are undone due to squashing
system.cpu.rename.int_rename_lookups         13434072                       # Number of integer rename lookups
system.cpu.rename.serializeStallCycles          10017                       # count of cycles rename stalled for serializing inst
system.cpu.rename.serializingInsts                212                       # count of serializing insts renamed
system.cpu.rename.skidInsts                   1709749                       # count of insts added to the skid buffer
system.cpu.rename.tempSerializingInsts             81                       # count of temporary serializing insts renamed
system.cpu.rename.vec_rename_lookups              502                       # Number of vector rename lookups
system.cpu.rob.rob_reads                     15201283                       # The number of ROB reads
system.cpu.rob.rob_writes                    22773994                       # The number of ROB writes
system.cpu.timesIdled                             396                       # Number of times that the entire CPU went into an idle state and unscheduled itself
system.cpu.vec_regfile_reads                      336                       # number of vector regfile reads
system.cpu.vec_regfile_writes                     167                       # number of vector regfile writes
system.cpu.workload.numSyscalls                    23                       # Number of system calls
system.membus.snoop_filter.hit_multi_requests            0                       # Number of requests hitting in the snoop filter with multiple (>1) holders of the requested data.
system.membus.snoop_filter.hit_multi_snoops            0                       # Number of snoops hitting in the snoop filter with multiple (>1) holders of the requested data.
system.membus.snoop_filter.hit_single_requests         1525                       # Number of requests hitting in the snoop filter with a single holder of the requested data.
system.membus.snoop_filter.hit_single_snoops            0                       # Number of snoops hitting in the snoop filter with a single holder of the requested data.
system.membus.snoop_filter.tot_requests         12708                       # Total number of requests made to the snoop filter.
system.membus.snoop_filter.tot_snoops               0                       # Total number of snoops made to the snoop filter.
system.tol2bus.snoop_filter.hit_multi_requests            1                       # Number of requests hitting in the snoop filter with multiple (>1) holders of the requested data.
system.tol2bus.snoop_filter.hit_multi_snoops            0                       # Number of snoops hitting in the snoop filter with multiple (>1) holders of the requested data.
system.tol2bus.snoop_filter.hit_single_requests        10236                       # Number of requests hitting in the snoop filter with a single holder of the requested data.
system.tol2bus.snoop_filter.hit_single_snoops           12                       # Number of snoops hitting in the snoop filter with a single holder of the requested data.
system.tol2bus.snoop_filter.tot_requests        21748                       # Total number of requests made to the snoop filter.
system.tol2bus.snoop_filter.tot_snoops             12                       # Total number of snoops made to the snoop filter.
system.membus.trans_dist::ReadResp               4949                       # Transaction distribution
system.membus.trans_dist::WritebackDirty         1513                       # Transaction distribution
system.membus.trans_dist::CleanEvict               12                       # Transaction distribution
system.membus.trans_dist::ReadExReq              6227                       # Transaction distribution
system.membus.trans_dist::ReadExResp             6227                       # Transaction distribution
system.membus.trans_dist::ReadSharedReq          4949                       # Transaction distribution
system.membus.trans_dist::InvalidateReq             7                       # Transaction distribution
system.membus.pkt_count_system.l2.mem_side::system.mem_ctrls.port        23884                       # Packet count per connected master and slave (bytes)
system.membus.pkt_count::total                  23884                       # Packet count per connected master and slave (bytes)
system.membus.pkt_size_system.l2.mem_side::system.mem_ctrls.port       812096                       # Cumulative packet size per connected master and slave (bytes)
system.membus.pkt_size::total                  812096                       # Cumulative packet size per connected master and slave (bytes)
system.membus.snoops                                0                       # Total snoops (count)
system.membus.snoopTraffic                          0                       # Total snoop traffic (bytes)
system.membus.snoop_fanout::samples             11183                       # Request fanout histogram
system.membus.snoop_fanout::mean                    0                       # Request fanout histogram
system.membus.snoop_fanout::stdev                   0                       # Request fanout histogram
system.membus.snoop_fanout::underflows              0      0.00%      0.00% # Request fanout histogram
system.membus.snoop_fanout::0                   11183    100.00%    100.00% # Request fanout histogram
system.membus.snoop_fanout::1                       0      0.00%    100.00% # Request fanout histogram
system.membus.snoop_fanout::overflows               0      0.00%    100.00% # Request fanout histogram
system.membus.snoop_fanout::min_value               0                       # Request fanout histogram
system.membus.snoop_fanout::max_value               0                       # Request fanout histogram
system.membus.snoop_fanout::total               11183                       # Request fanout histogram
system.membus.reqLayer0.occupancy            20940500                       # Layer occupancy (ticks)
system.membus.reqLayer0.utilization               0.8                       # Layer utilization (%)
system.membus.respLayer1.occupancy           58073750                       # Layer occupancy (ticks)
system.membus.respLayer1.utilization              2.4                       # Layer utilization (%)
system.membus.power_state.pwrStateResidencyTicks::UNDEFINED   2469543500                       # Cumulative time (in ticks) in various power states
system.tol2bus.trans_dist::ReadResp              5241                       # Transaction distribution
system.tol2bus.trans_dist::WritebackDirty         7303                       # Transaction distribution
system.tol2bus.trans_dist::WritebackClean          313                       # Transaction distribution
system.tol2bus.trans_dist::CleanEvict            4157                       # Transaction distribution
system.tol2bus.trans_dist::ReadExReq             6263                       # Transaction distribution
system.tol2bus.trans_dist::ReadExResp            6263                       # Transaction distribution
system.tol2bus.trans_dist::ReadCleanReq           565                       # Transaction distribution
system.tol2bus.trans_dist::ReadSharedReq         4676                       # Transaction distribution
system.tol2bus.trans_dist::InvalidateReq            8                       # Transaction distribution
system.tol2bus.trans_dist::InvalidateResp            8                       # Transaction distribution
system.tol2bus.pkt_count_system.cpu.icache.mem_side::system.l2.cpu_side         1443                       # Packet count per connected master and slave (bytes)
system.tol2bus.pkt_count_system.cpu.dcache.mem_side::system.l2.cpu_side        31817                       # Packet count per connected master and slave (bytes)
system.tol2bus.pkt_count::total                 33260                       # Packet count per connected master and slave (bytes)
system.tol2bus.pkt_size_system.cpu.icache.mem_side::system.l2.cpu_side        56192                       # Cumulative packet size per connected master and slave (bytes)
system.tol2bus.pkt_size_system.cpu.dcache.mem_side::system.l2.cpu_side      1070656                       # Cumulative packet size per connected master and slave (bytes)
system.tol2bus.pkt_size::total                1126848                       # Cumulative packet size per connected master and slave (bytes)
system.tol2bus.snoops                            1537                       # Total snoops (count)
system.tol2bus.snoopTraffic                     96832                       # Total snoop traffic (bytes)
system.tol2bus.snoop_fanout::samples            13049                       # Request fanout histogram
system.tol2bus.snoop_fanout::mean            0.000996                       # Request fanout histogram
system.tol2bus.snoop_fanout::stdev           0.031549                       # Request fanout histogram
system.tol2bus.snoop_fanout::underflows             0      0.00%      0.00% # Request fanout histogram
system.tol2bus.snoop_fanout::0                  13036     99.90%     99.90% # Request fanout histogram
system.tol2bus.snoop_fanout::1                     13      0.10%    100.00% # Request fanout histogram
system.tol2bus.snoop_fanout::2                      0      0.00%    100.00% # Request fanout histogram
system.tol2bus.snoop_fanout::overflows              0      0.00%    100.00% # Request fanout histogram
system.tol2bus.snoop_fanout::min_value              0                       # Request fanout histogram
system.tol2bus.snoop_fanout::max_value              1                       # Request fanout histogram
system.tol2bus.snoop_fanout::total              13049                       # Request fanout histogram
system.tol2bus.reqLayer0.occupancy           16977000                       # Layer occupancy (ticks)
system.tol2bus.reqLayer0.utilization              0.7                       # Layer utilization (%)
system.tol2bus.respLayer1.occupancy          16412500                       # Layer occupancy (ticks)
system.tol2bus.respLayer1.utilization             0.7                       # Layer utilization (%)
system.tol2bus.respLayer0.occupancy            848498                       # Layer occupancy (ticks)
system.tol2bus.respLayer0.utilization             0.0                       # Layer utilization (%)
system.tol2bus.power_state.pwrStateResidencyTicks::UNDEFINED   2469543500                       # Cumulative time (in ticks) in various power states
system.voltage_domain.voltage                       1                       # Voltage in Volts
system.clk_domain.clock                          1000                       # Clock period in ticks
system.l2.demand_hits::.cpu.inst                   54                       # number of demand (read+write) hits
system.l2.demand_hits::.cpu.data                  274                       # number of demand (read+write) hits
system.l2.demand_hits::total                      328                       # number of demand (read+write) hits
system.l2.overall_hits::.cpu.inst                  54                       # number of overall hits
system.l2.overall_hits::.cpu.data                 274                       # number of overall hits
system.l2.overall_hits::total                     328                       # number of overall hits
system.l2.demand_misses::.cpu.inst                511                       # number of demand (read+write) misses
system.l2.demand_misses::.cpu.data              10665                       # number of demand (read+write) misses
system.l2.demand_misses::total                  11176                       # number of demand (read+write) misses
system.l2.overall_misses::.cpu.inst               511                       # number of overall misses
system.l2.overall_misses::.cpu.data             10665                       # number of overall misses
system.l2.overall_misses::total                 11176                       # number of overall misses
system.l2.demand_miss_latency::.cpu.inst     41151500                       # number of demand (read+write) miss cycles
system.l2.demand_miss_latency::.cpu.data    874339000                       # number of demand (read+write) miss cycles
system.l2.demand_miss_latency::total        915490500                       # number of demand (read+write) miss cycles
system.l2.overall_miss_latency::.cpu.inst     41151500                       # number of overall miss cycles
system.l2.overall_miss_latency::.cpu.data    874339000                       # number of overall miss cycles
system.l2.overall_miss_latency::total       915490500                       # number of overall miss cycles
system.l2.demand_accesses::.cpu.inst              565                       # number of demand (read+write) accesses
system.l2.demand_accesses::.cpu.data            10939                       # number of demand (read+write) accesses
system.l2.demand_accesses::total                11504                       # number of demand (read+write) accesses
system.l2.overall_accesses::.cpu.inst             565                       # number of overall (read+write) accesses
system.l2.overall_accesses::.cpu.data           10939                       # number of overall (read+write) accesses
system.l2.overall_accesses::total               11504                       # number of overall (read+write) accesses
system.l2.demand_miss_rate::.cpu.inst        0.904425                       # miss rate for demand accesses
system.l2.demand_miss_rate::.cpu.data        0.974952                       # miss rate for demand accesses
system.l2.demand_miss_rate::total            0.971488                       # miss rate for demand accesses
system.l2.overall_miss_rate::.cpu.inst       0.904425                       # miss rate for overall accesses
system.l2.overall_miss_rate::.cpu.data       0.974952                       # miss rate for overall accesses
system.l2.overall_miss_rate::total           0.971488                       # miss rate for overall accesses
system.l2.demand_avg_miss_latency::.cpu.inst 80531.311155                       # average overall miss latency
system.l2.demand_avg_miss_latency::.cpu.data 81982.090952                       # average overall miss latency
system.l2.demand_avg_miss_latency::total 81915.756979                       # average overall miss latency
system.l2.overall_avg_miss_latency::.cpu.inst 80531.311155                       # average overall miss latency
system.l2.overall_avg_miss_latency::.cpu.data 81982.090952                       # average overall miss latency
system.l2.overall_avg_miss_latency::total 81915.756979                       # average overall miss latency
system.l2.blocked_cycles::no_mshrs                  0                       # number of cycles access was blocked
system.l2.blocked_cycles::no_targets                0                       # number of cycles access was blocked
system.l2.blocked::no_mshrs                         0                       # number of cycles access was blocked
system.l2.blocked::no_targets                       0                       # number of cycles access was blocked
system.l2.avg_blocked_cycles::no_mshrs            nan                       # average number of cycles each access was blocked
system.l2.avg_blocked_cycles::no_targets          nan                       # average number of cycles each access was blocked
system.l2.writebacks::.writebacks                1513                       # number of writebacks
system.l2.writebacks::total                      1513                       # number of writebacks
system.l2.demand_mshr_misses::.cpu.inst           511                       # number of demand (read+write) MSHR misses
system.l2.demand_mshr_misses::.cpu.data         10665                       # number of demand (read+write) MSHR misses
system.l2.demand_mshr_misses::total             11176                       # number of demand (read+write) MSHR misses
system.l2.overall_mshr_misses::.cpu.inst          511                       # number of overall MSHR misses
system.l2.overall_mshr_misses::.cpu.data        10665                       # number of overall MSHR misses
system.l2.overall_mshr_misses::total            11176                       # number of overall MSHR misses
system.l2.demand_mshr_miss_latency::.cpu.inst     36041500                       # number of demand (read+write) MSHR miss cycles
system.l2.demand_mshr_miss_latency::.cpu.data    767689000                       # number of demand (read+write) MSHR miss cycles
system.l2.demand_mshr_miss_latency::total    803730500                       # number of demand (read+write) MSHR miss cycles
system.l2.overall_mshr_miss_latency::.cpu.inst     36041500                       # number of overall MSHR miss cycles
system.l2.overall_mshr_miss_latency::.cpu.data    767689000                       # number of overall MSHR miss cycles
system.l2.overall_mshr_miss_latency::total    803730500                       # number of overall MSHR miss cycles
system.l2.demand_mshr_miss_rate::.cpu.inst     0.904425                       # mshr miss rate for demand accesses
system.l2.demand_mshr_miss_rate::.cpu.data     0.974952                       # mshr miss rate for demand accesses
system.l2.demand_mshr_miss_rate::total       0.971488                       # mshr miss rate for demand accesses
system.l2.overall_mshr_miss_rate::.cpu.inst     0.904425                       # mshr miss rate for overall accesses
system.l2.overall_mshr_miss_rate::.cpu.data     0.974952                       # mshr miss rate for overall accesses
system.l2.overall_mshr_miss_rate::total      0.971488                       # mshr miss rate for overall accesses
system.l2.demand_avg_mshr_miss_latency::.cpu.inst 70531.311155                       # average overall mshr miss latency
system.l2.demand_avg_mshr_miss_latency::.cpu.data 71982.090952                       # average overall mshr miss latency
system.l2.demand_avg_mshr_miss_latency::total 71915.756979                       # average overall mshr miss latency
system.l2.overall_avg_mshr_miss_latency::.cpu.inst 70531.311155                       # average overall mshr miss latency
system.l2.overall_avg_mshr_miss_latency::.cpu.data 71982.090952                       # average overall mshr miss latency
system.l2.overall_avg_mshr_miss_latency::total 71915.756979                       # average overall mshr miss latency
system.l2.replacements                           1537                       # number of replacements
system.l2.WritebackDirty_hits::.writebacks         5790                       # number of WritebackDirty hits
system.l2.WritebackDirty_hits::total             5790                       # number of WritebackDirty hits
system.l2.WritebackDirty_accesses::.writebacks         5790                       # number of WritebackDirty accesses(hits+misses)
system.l2.WritebackDirty_accesses::total         5790                       # number of WritebackDirty accesses(hits+misses)
system.l2.WritebackClean_hits::.writebacks          313                       # number of WritebackClean hits
system.l2.WritebackClean_hits::total              313                       # number of WritebackClean hits
system.l2.WritebackClean_accesses::.writebacks          313                       # number of WritebackClean accesses(hits+misses)
system.l2.WritebackClean_accesses::total          313                       # number of WritebackClean accesses(hits+misses)
system.l2.ReadExReq_hits::.cpu.data                36                       # number of ReadExReq hits
system.l2.ReadExReq_hits::total                    36                       # number of ReadExReq hits
system.l2.ReadExReq_misses::.cpu.data            6227                       # number of ReadExReq misses
system.l2.ReadExReq_misses::total                6227                       # number of ReadExReq misses
system.l2.ReadExReq_miss_latency::.cpu.data    528177500                       # number of ReadExReq miss cycles
system.l2.ReadExReq_miss_latency::total     528177500                       # number of ReadExReq miss cycles
system.l2.ReadExReq_accesses::.cpu.data          6263                       # number of ReadExReq accesses(hits+misses)
system.l2.ReadExReq_accesses::total              6263                       # number of ReadExReq accesses(hits+misses)
system.l2.ReadExReq_miss_rate::.cpu.data     0.994252                       # miss rate for ReadExReq accesses
system.l2.ReadExReq_miss_rate::total         0.994252                       # miss rate for ReadExReq accesses
system.l2.ReadExReq_avg_miss_latency::.cpu.data 84820.539586                       # average ReadExReq miss latency
system.l2.ReadExReq_avg_miss_latency::total 84820.539586                       # average ReadExReq miss latency
system.l2.ReadExReq_mshr_misses::.cpu.data         6227                       # number of ReadExReq MSHR misses
system.l2.ReadExReq_mshr_misses::total           6227                       # number of ReadExReq MSHR misses
system.l2.ReadExReq_mshr_miss_latency::.cpu.data    465907500                       # number of ReadExReq MSHR miss cycles
system.l2.ReadExReq_mshr_miss_latency::total    465907500                       # number of ReadExReq MSHR miss cycles
system.l2.ReadExReq_mshr_miss_rate::.cpu.data     0.994252                       # mshr miss rate for ReadExReq accesses
system.l2.ReadExReq_mshr_miss_rate::total     0.994252                       # mshr miss rate for ReadExReq accesses
system.l2.ReadExReq_avg_mshr_miss_latency::.cpu.data 74820.539586                       # average ReadExReq mshr miss latency
system.l2.ReadExReq_avg_mshr_miss_latency::total 74820.539586                       # average ReadExReq mshr miss latency
system.l2.ReadCleanReq_hits::.cpu.inst             54                       # number of ReadCleanReq hits
system.l2.ReadCleanReq_hits::total                 54                       # number of ReadCleanReq hits
system.l2.ReadCleanReq_misses::.cpu.inst          511                       # number of ReadCleanReq misses
system.l2.ReadCleanReq_misses::total              511                       # number of ReadCleanReq misses
system.l2.ReadCleanReq_miss_latency::.cpu.inst     41151500                       # number of ReadCleanReq miss cycles
system.l2.ReadCleanReq_miss_latency::total     41151500                       # number of ReadCleanReq miss cycles
system.l2.ReadCleanReq_accesses::.cpu.inst          565                       # number of ReadCleanReq accesses(hits+misses)
system.l2.ReadCleanReq_accesses::total            565                       # number of ReadCleanReq accesses(hits+misses)
system.l2.ReadCleanReq_miss_rate::.cpu.inst     0.904425                       # miss rate for ReadCleanReq accesses
system.l2.ReadCleanReq_miss_rate::total      0.904425                       # miss rate for ReadCleanReq accesses
system.l2.ReadCleanReq_avg_miss_latency::.cpu.inst 80531.311155                       # average ReadCleanReq miss latency
system.l2.ReadCleanReq_avg_miss_latency::total 80531.311155                       # average ReadCleanReq miss latency
system.l2.ReadCleanReq_mshr_misses::.cpu.inst          511                       # number of ReadCleanReq MSHR misses
system.l2.ReadCleanReq_mshr_misses::total          511                       # number of ReadCleanReq MSHR misses
system.l2.ReadCleanReq_mshr_miss_latency::.cpu.inst     36041500                       # number of ReadCleanReq MSHR miss cycles
system.l2.ReadCleanReq_mshr_miss_latency::total     36041500                       # number of ReadCleanReq MSHR miss cycles
system.l2.ReadCleanReq_mshr_miss_rate::.cpu.inst     0.904425                       # mshr miss rate for ReadCleanReq accesses
[...]
system.cpu.dcache.overall_hits::.cpu.data      4511810                       # number of overall hits
system.cpu.dcache.overall_hits::total         4511810                       # number of overall hits
system.cpu.dcache.demand_misses::.cpu.data        35622                       # number of demand (read+write) misses
system.cpu.dcache.demand_misses::total          35622                       # number of demand (read+write) misses
system.cpu.dcache.overall_misses::.cpu.data        35625                       # number of overall misses
system.cpu.dcache.overall_misses::total         35625                       # number of overall misses
system.cpu.dcache.demand_miss_latency::.cpu.data   2351364823                       # number of demand (read+write) miss cycles
system.cpu.dcache.demand_miss_latency::total   2351364823                       # number of demand (read+write) miss cycles
system.cpu.dcache.overall_miss_latency::.cpu.data   2351364823                       # number of overall miss cycles
system.cpu.dcache.overall_miss_latency::total   2351364823                       # number of overall miss cycles
system.cpu.dcache.demand_accesses::.cpu.data      4547376                       # number of demand (read+write) accesses
system.cpu.dcache.demand_accesses::total      4547376                       # number of demand (read+write) accesses
system.cpu.dcache.overall_accesses::.cpu.data      4547435                       # number of overall (read+write) accesses
system.cpu.dcache.overall_accesses::total      4547435                       # number of overall (read+write) accesses
system.cpu.dcache.demand_miss_rate::.cpu.data     0.007834                       # miss rate for demand accesses
system.cpu.dcache.demand_miss_rate::total     0.007834                       # miss rate for demand accesses
system.cpu.dcache.overall_miss_rate::.cpu.data     0.007834                       # miss rate for overall accesses
system.cpu.dcache.overall_miss_rate::total     0.007834                       # miss rate for overall accesses
system.cpu.dcache.demand_avg_miss_latency::.cpu.data 66008.781736                       # average overall miss latency
system.cpu.dcache.demand_avg_miss_latency::total 66008.781736                       # average overall miss latency
system.cpu.dcache.overall_avg_miss_latency::.cpu.data 66003.223102                       # average overall miss latency
system.cpu.dcache.overall_avg_miss_latency::total 66003.223102                       # average overall miss latency
system.cpu.dcache.blocked_cycles::no_mshrs       284229                       # number of cycles access was blocked
system.cpu.dcache.blocked_cycles::no_targets          380                       # number of cycles access was blocked
system.cpu.dcache.blocked::no_mshrs              4439                       # number of cycles access was blocked
system.cpu.dcache.blocked::no_targets               4                       # number of cycles access was blocked
system.cpu.dcache.avg_blocked_cycles::no_mshrs    64.029962                       # average number of cycles each access was blocked
system.cpu.dcache.avg_blocked_cycles::no_targets           95                       # average number of cycles each access was blocked
system.cpu.dcache.writebacks::.writebacks         5790                       # number of writebacks
system.cpu.dcache.writebacks::total              5790                       # number of writebacks
system.cpu.dcache.demand_mshr_hits::.cpu.data        24678                       # number of demand (read+write) MSHR hits
system.cpu.dcache.demand_mshr_hits::total        24678                       # number of demand (read+write) MSHR hits
system.cpu.dcache.overall_mshr_hits::.cpu.data        24678                       # number of overall MSHR hits
system.cpu.dcache.overall_mshr_hits::total        24678                       # number of overall MSHR hits
system.cpu.dcache.demand_mshr_misses::.cpu.data        10944                       # number of demand (read+write) MSHR misses
system.cpu.dcache.demand_mshr_misses::total        10944                       # number of demand (read+write) MSHR misses
system.cpu.dcache.overall_mshr_misses::.cpu.data        10947                       # number of overall MSHR misses
system.cpu.dcache.overall_mshr_misses::total        10947                       # number of overall MSHR misses
system.cpu.dcache.demand_mshr_miss_latency::.cpu.data    893874474                       # number of demand (read+write) MSHR miss cycles
system.cpu.dcache.demand_mshr_miss_latency::total    893874474                       # number of demand (read+write) MSHR miss cycles
system.cpu.dcache.overall_mshr_miss_latency::.cpu.data    894196474                       # number of overall MSHR miss cycles
system.cpu.dcache.overall_mshr_miss_latency::total    894196474                       # number of overall MSHR miss cycles
system.cpu.dcache.demand_mshr_miss_rate::.cpu.data     0.002407                       # mshr miss rate for demand accesses
system.cpu.dcache.demand_mshr_miss_rate::total     0.002407                       # mshr miss rate for demand accesses
system.cpu.dcache.overall_mshr_miss_rate::.cpu.data     0.002407                       # mshr miss rate for overall accesses
system.cpu.dcache.overall_mshr_miss_rate::total     0.002407                       # mshr miss rate for overall accesses
system.cpu.dcache.demand_avg_mshr_miss_latency::.cpu.data 81677.126645                       # average overall mshr miss latency
system.cpu.dcache.demand_avg_mshr_miss_latency::total 81677.126645                       # average overall mshr miss latency
system.cpu.dcache.overall_avg_mshr_miss_latency::.cpu.data 81684.157669                       # average overall mshr miss latency
system.cpu.dcache.overall_avg_mshr_miss_latency::total 81684.157669                       # average overall mshr miss latency
system.cpu.dcache.replacements                   9923                       # number of replacements
system.cpu.dcache.ReadReq_hits::.cpu.data      2838139                       # number of ReadReq hits
system.cpu.dcache.ReadReq_hits::total         2838139                       # number of ReadReq hits
system.cpu.dcache.ReadReq_misses::.cpu.data        16677                       # number of ReadReq misses
system.cpu.dcache.ReadReq_misses::total         16677                       # number of ReadReq misses
system.cpu.dcache.ReadReq_miss_latency::.cpu.data   1071251500                       # number of ReadReq miss cycles
system.cpu.dcache.ReadReq_miss_latency::total   1071251500                       # number of ReadReq miss cycles
system.cpu.dcache.ReadReq_accesses::.cpu.data      2854816                       # number of ReadReq accesses(hits+misses)
system.cpu.dcache.ReadReq_accesses::total      2854816                       # number of ReadReq accesses(hits+misses)
system.cpu.dcache.ReadReq_miss_rate::.cpu.data     0.005842                       # miss rate for ReadReq accesses
system.cpu.dcache.ReadReq_miss_rate::total     0.005842                       # miss rate for ReadReq accesses
system.cpu.dcache.ReadReq_avg_miss_latency::.cpu.data 64235.264136                       # average ReadReq miss latency
system.cpu.dcache.ReadReq_avg_miss_latency::total 64235.264136                       # average ReadReq miss latency
system.cpu.dcache.ReadReq_mshr_hits::.cpu.data        12004                       # number of ReadReq MSHR hits
system.cpu.dcache.ReadReq_mshr_hits::total        12004                       # number of ReadReq MSHR hits
system.cpu.dcache.ReadReq_mshr_misses::.cpu.data         4673                       # number of ReadReq MSHR misses
system.cpu.dcache.ReadReq_mshr_misses::total         4673                       # number of ReadReq MSHR misses
system.cpu.dcache.ReadReq_mshr_miss_latency::.cpu.data    355657000                       # number of ReadReq MSHR miss cycles
system.cpu.dcache.ReadReq_mshr_miss_latency::total    355657000                       # number of ReadReq MSHR miss cycles
system.cpu.dcache.ReadReq_mshr_miss_rate::.cpu.data     0.001637                       # mshr miss rate for ReadReq accesses
system.cpu.dcache.ReadReq_mshr_miss_rate::total     0.001637                       # mshr miss rate for ReadReq accesses
system.cpu.dcache.ReadReq_avg_mshr_miss_latency::.cpu.data 76108.923604                       # average ReadReq mshr miss latency
system.cpu.dcache.ReadReq_avg_mshr_miss_latency::total 76108.923604                       # average ReadReq mshr miss latency
system.cpu.dcache.WriteReq_hits::.cpu.data      1673615                       # number of WriteReq hits
system.cpu.dcache.WriteReq_hits::total        1673615                       # number of WriteReq hits
system.cpu.dcache.WriteReq_misses::.cpu.data        18938                       # number of WriteReq misses
system.cpu.dcache.WriteReq_misses::total        18938                       # number of WriteReq misses
system.cpu.dcache.WriteReq_miss_latency::.cpu.data   1279890825                       # number of WriteReq miss cycles
system.cpu.dcache.WriteReq_miss_latency::total   1279890825                       # number of WriteReq miss cycles
system.cpu.dcache.WriteReq_accesses::.cpu.data      1692553                       # number of WriteReq accesses(hits+misses)
system.cpu.dcache.WriteReq_accesses::total      1692553                       # number of WriteReq accesses(hits+misses)
system.cpu.dcache.WriteReq_miss_rate::.cpu.data     0.011189                       # miss rate for WriteReq accesses
system.cpu.dcache.WriteReq_miss_rate::total     0.011189                       # miss rate for WriteReq accesses
system.cpu.dcache.WriteReq_avg_miss_latency::.cpu.data 67583.209684                       # average WriteReq miss latency
system.cpu.dcache.WriteReq_avg_miss_latency::total 67583.209684                       # average WriteReq miss latency
system.cpu.dcache.WriteReq_mshr_hits::.cpu.data        12674                       # number of WriteReq MSHR hits
system.cpu.dcache.WriteReq_mshr_hits::total        12674                       # number of WriteReq MSHR hits
system.cpu.dcache.WriteReq_mshr_misses::.cpu.data         6264                       # number of WriteReq MSHR misses
system.cpu.dcache.WriteReq_mshr_misses::total         6264                       # number of WriteReq MSHR misses
system.cpu.dcache.WriteReq_mshr_miss_latency::.cpu.data    538001976                       # number of WriteReq MSHR miss cycles
system.cpu.dcache.WriteReq_mshr_miss_latency::total    538001976                       # number of WriteReq MSHR miss cycles
system.cpu.dcache.WriteReq_mshr_miss_rate::.cpu.data     0.003701                       # mshr miss rate for WriteReq accesses
system.cpu.dcache.WriteReq_mshr_miss_rate::total     0.003701                       # mshr miss rate for WriteReq accesses
system.cpu.dcache.WriteReq_avg_mshr_miss_latency::.cpu.data 85887.927203                       # average WriteReq mshr miss latency
system.cpu.dcache.WriteReq_avg_mshr_miss_latency::total 85887.927203                       # average WriteReq mshr miss latency
system.cpu.dcache.SoftPFReq_hits::.cpu.data           56                       # number of SoftPFReq hits
system.cpu.dcache.SoftPFReq_hits::total            56                       # number of SoftPFReq hits
system.cpu.dcache.SoftPFReq_misses::.cpu.data            3                       # number of SoftPFReq misses
system.cpu.dcache.SoftPFReq_misses::total            3                       # number of SoftPFReq misses
system.cpu.dcache.SoftPFReq_accesses::.cpu.data           59                       # number of SoftPFReq accesses(hits+misses)
system.cpu.dcache.SoftPFReq_accesses::total           59                       # number of SoftPFReq accesses(hits+misses)
system.cpu.dcache.SoftPFReq_miss_rate::.cpu.data     0.050847                       # miss rate for SoftPFReq accesses
system.cpu.dcache.SoftPFReq_miss_rate::total     0.050847                       # miss rate for SoftPFReq accesses
system.cpu.dcache.SoftPFReq_mshr_misses::.cpu.data            3                       # number of SoftPFReq MSHR misses
system.cpu.dcache.SoftPFReq_mshr_misses::total            3                       # number of SoftPFReq MSHR misses
system.cpu.dcache.SoftPFReq_mshr_miss_latency::.cpu.data       322000                       # number of SoftPFReq MSHR miss cycles
system.cpu.dcache.SoftPFReq_mshr_miss_latency::total       322000                       # number of SoftPFReq MSHR miss cycles
system.cpu.dcache.SoftPFReq_mshr_miss_rate::.cpu.data     0.050847                       # mshr miss rate for SoftPFReq accesses
system.cpu.dcache.SoftPFReq_mshr_miss_rate::total     0.050847                       # mshr miss rate for SoftPFReq accesses
system.cpu.dcache.SoftPFReq_avg_mshr_miss_latency::.cpu.data 107333.333333                       # average SoftPFReq mshr miss latency
system.cpu.dcache.SoftPFReq_avg_mshr_miss_latency::total 107333.333333                       # average SoftPFReq mshr miss latency
system.cpu.dcache.WriteLineReq_misses::.cpu.data            7                       # number of WriteLineReq misses
system.cpu.dcache.WriteLineReq_misses::total            7                       # number of WriteLineReq misses
system.cpu.dcache.WriteLineReq_miss_latency::.cpu.data       222498                       # number of WriteLineReq miss cycles
system.cpu.dcache.WriteLineReq_miss_latency::total       222498                       # number of WriteLineReq miss cycles
system.cpu.dcache.WriteLineReq_accesses::.cpu.data            7                       # number of WriteLineReq accesses(hits+misses)
system.cpu.dcache.WriteLineReq_accesses::total            7                       # number of WriteLineReq accesses(hits+misses)
system.cpu.dcache.WriteLineReq_miss_rate::.cpu.data            1                       # miss rate for WriteLineReq accesses
system.cpu.dcache.WriteLineReq_miss_rate::total            1                       # miss rate for WriteLineReq accesses
system.cpu.dcache.WriteLineReq_avg_miss_latency::.cpu.data 31785.428571                       # average WriteLineReq miss latency
system.cpu.dcache.WriteLineReq_avg_miss_latency::total 31785.428571                       # average WriteLineReq miss latency
system.cpu.dcache.WriteLineReq_mshr_misses::.cpu.data            7                       # number of WriteLineReq MSHR misses
system.cpu.dcache.WriteLineReq_mshr_misses::total            7                       # number of WriteLineReq MSHR misses
system.cpu.dcache.WriteLineReq_mshr_miss_latency::.cpu.data       215498                       # number of WriteLineReq MSHR miss cycles
system.cpu.dcache.WriteLineReq_mshr_miss_latency::total       215498                       # number of WriteLineReq MSHR miss cycles
system.cpu.dcache.WriteLineReq_mshr_miss_rate::.cpu.data            1                       # mshr miss rate for WriteLineReq accesses
system.cpu.dcache.WriteLineReq_mshr_miss_rate::total            1                       # mshr miss rate for WriteLineReq accesses
system.cpu.dcache.WriteLineReq_avg_mshr_miss_latency::.cpu.data 30785.428571                       # average WriteLineReq mshr miss latency
system.cpu.dcache.WriteLineReq_avg_mshr_miss_latency::total 30785.428571                       # average WriteLineReq mshr miss latency
system.cpu.dcache.LoadLockedReq_hits::.cpu.data           45                       # number of LoadLockedReq hits
system.cpu.dcache.LoadLockedReq_hits::total           45                       # number of LoadLockedReq hits
system.cpu.dcache.LoadLockedReq_misses::.cpu.data            2                       # number of LoadLockedReq misses
system.cpu.dcache.LoadLockedReq_misses::total            2                       # number of LoadLockedReq misses
system.cpu.dcache.LoadLockedReq_miss_latency::.cpu.data        85000                       # number of LoadLockedReq miss cycles
system.cpu.dcache.LoadLockedReq_miss_latency::total        85000                       # number of LoadLockedReq miss cycles
system.cpu.dcache.LoadLockedReq_accesses::.cpu.data           47                       # number of LoadLockedReq accesses(hits+misses)
system.cpu.dcache.LoadLockedReq_accesses::total           47                       # number of LoadLockedReq accesses(hits+misses)
system.cpu.dcache.LoadLockedReq_miss_rate::.cpu.data     0.042553                       # miss rate for LoadLockedReq accesses
system.cpu.dcache.LoadLockedReq_miss_rate::total     0.042553                       # miss rate for LoadLockedReq accesses
system.cpu.dcache.LoadLockedReq_avg_miss_latency::.cpu.data        42500                       # average LoadLockedReq miss latency
system.cpu.dcache.LoadLockedReq_avg_miss_latency::total        42500                       # average LoadLockedReq miss latency
system.cpu.dcache.LoadLockedReq_mshr_hits::.cpu.data            2                       # number of LoadLockedReq MSHR hits
system.cpu.dcache.LoadLockedReq_mshr_hits::total            2                       # number of LoadLockedReq MSHR hits
system.cpu.dcache.StoreCondReq_hits::.cpu.data           36                       # number of StoreCondReq hits
system.cpu.dcache.StoreCondReq_hits::total           36                       # number of StoreCondReq hits
system.cpu.dcache.StoreCondReq_accesses::.cpu.data           36                       # number of StoreCondReq accesses(hits+misses)
system.cpu.dcache.StoreCondReq_accesses::total           36                       # number of StoreCondReq accesses(hits+misses)
system.cpu.dcache.power_state.pwrStateResidencyTicks::UNDEFINED   2469543500                       # Cumulative time (in ticks) in various power states
system.cpu.dcache.tags.tagsinuse           979.005701                       # Cycle average of tags in use
system.cpu.dcache.tags.total_refs             4522838                       # Total number of references to valid blocks.
system.cpu.dcache.tags.sampled_refs             10947                       # Sample count of references to valid blocks.
system.cpu.dcache.tags.avg_refs            413.157760                       # Average number of references to valid blocks.
system.cpu.dcache.tags.warmup_cycle            176500                       # Cycle when the warmup percentage was hit.
system.cpu.dcache.tags.occ_blocks::.cpu.data   979.005701                       # Average occupied blocks per requestor
system.cpu.dcache.tags.occ_percent::.cpu.data     0.956060                       # Average percentage of cache occupancy
system.cpu.dcache.tags.occ_percent::total     0.956060                       # Average percentage of cache occupancy
system.cpu.dcache.tags.occ_task_id_blocks::1024         1024                       # Occupied blocks per task id
system.cpu.dcache.tags.age_task_id_blocks_1024::0           92                       # Occupied blocks per task id
system.cpu.dcache.tags.age_task_id_blocks_1024::1          220                       # Occupied blocks per task id
system.cpu.dcache.tags.age_task_id_blocks_1024::2          607                       # Occupied blocks per task id
system.cpu.dcache.tags.age_task_id_blocks_1024::3          105                       # Occupied blocks per task id
system.cpu.dcache.tags.occ_task_id_percent::1024            1                       # Percentage of cache occupancy per task id
system.cpu.dcache.tags.tag_accesses           9105983                       # Number of tag accesses
system.cpu.dcache.tags.data_accesses          9105983                       # Number of data accesses
system.cpu.dcache.tags.power_state.pwrStateResidencyTicks::UNDEFINED   2469543500                       # Cumulative time (in ticks) in various power states
system.cpu.power_state.pwrStateResidencyTicks::ON   2469543500                       # Cumulative time (in ticks) in various power states

---------- End Simulation Statistics   ----------
