
---------- Begin Simulation Statistics ----------
final_tick                                  776433500                       # Number of ticks from beginning of simulation (restored from checkpoints and never reset)
host_inst_rate                                  85971                       # Simulator instruction rate (inst/s)
host_mem_usage                                 863776                       # Number of bytes of host memory used
host_op_rate                                    89003                       # Simulator op (including micro ops) rate (op/s)
host_seconds                                    11.63                       # Real time elapsed on the host
host_tick_rate                               66749224                       # Simulator tick rate (ticks/s)
sim_freq                                 1000000000000                       # Frequency of simulated ticks
sim_insts                                     1000005                       # Number of instructions simulated
sim_ops                                       1035288                       # Number of ops (including micro ops) simulated
sim_seconds                                  0.000776                       # Number of seconds simulated
sim_ticks                                   776433500                       # Number of ticks simulated
system.cpu.branchPred.BTBCorrect                    0                       # Number of correct BTB predictions (this stat may not work properly.
system.cpu.branchPred.BTBHitPct             98.451373                       # BTB Hit Percentage
system.cpu.branchPred.BTBHits                   71075                       # Number of BTB hits
system.cpu.branchPred.BTBLookups                72193                       # Number of BTB lookups
system.cpu.branchPred.RASInCorrect                  2                       # Number of incorrect RAS predictions.
system.cpu.branchPred.condIncorrect              1435                       # Number of conditional branches incorrect
system.cpu.branchPred.condPredicted             43707                       # Number of conditional branches predicted
system.cpu.branchPred.indirectHits                 84                       # Number of indirect target hits.
system.cpu.branchPred.indirectLookups             285                       # Number of indirect predictor lookups.
system.cpu.branchPred.indirectMisses              201                       # Number of indirect misses.
system.cpu.branchPred.lookups                  146726                       # Number of BP lookups
system.cpu.branchPred.usedRAS                   50886                       # Number of times the RAS was used to get a target.
system.cpu.branchPredindirectMispredicted           94                       # Number of mispredicted indirect branches.
system.cpu.cc_regfile_reads                     69099                       # number of cc regfile reads
system.cpu.cc_regfile_writes                    68823                       # number of cc regfile writes
system.cpu.commit.amos                              0                       # Number of atomic instructions committed
system.cpu.commit.branchMispredicts              1130                       # The number of times a branch was mispredicted
system.cpu.commit.branches                      89552                       # Number of branches committed
system.cpu.commit.bw_lim_events                 64351                       # number cycles where commit BW limit reached
system.cpu.commit.commitNonSpecStalls             169                       # The number of times commit has been forced to stall to communicate backwards
system.cpu.commit.commitSquashedInsts          511113                       # The number of squashed insts skipped by commit
system.cpu.commit.committedInsts              1000413                       # Number of instructions committed
system.cpu.commit.committedOps                1035696                       # Number of ops (including micro ops) committed
system.cpu.commit.committed_per_cycle::samples      1438315                       # Number of insts commited each cycle
system.cpu.commit.committed_per_cycle::mean     0.720076                       # Number of insts commited each cycle
system.cpu.commit.committed_per_cycle::stdev     1.817253                       # Number of insts commited each cycle
system.cpu.commit.committed_per_cycle::underflows            0      0.00%      0.00% # Number of insts commited each cycle
system.cpu.commit.committed_per_cycle::0      1067985     74.25%     74.25% # Number of insts commited each cycle
system.cpu.commit.committed_per_cycle::1       199200     13.85%     88.10% # Number of insts commited each cycle
system.cpu.commit.committed_per_cycle::2        61471      4.27%     92.38% # Number of insts commited each cycle
system.cpu.commit.committed_per_cycle::3         9541      0.66%     93.04% # Number of insts commited each cycle
system.cpu.commit.committed_per_cycle::4        20556      1.43%     94.47% # Number of insts commited each cycle
system.cpu.commit.committed_per_cycle::5         6770      0.47%     94.94% # Number of insts commited each cycle
system.cpu.commit.committed_per_cycle::6         5038      0.35%     95.29% # Number of insts commited each cycle
system.cpu.commit.committed_per_cycle::7         3403      0.24%     95.53% # Number of insts commited each cycle
system.cpu.commit.committed_per_cycle::8        64351      4.47%    100.00% # Number of insts commited each cycle
system.cpu.commit.committed_per_cycle::overflows            0      0.00%    100.00% # Number of insts commited each cycle
system.cpu.commit.committed_per_cycle::min_value            0                       # Number of insts commited each cycle
system.cpu.commit.committed_per_cycle::max_value            8                       # Number of insts commited each cycle
system.cpu.commit.committed_per_cycle::total      1438315                       # Number of insts commited each cycle
system.cpu.commit.fp_insts                          0                       # Number of committed floating point instructions.
system.cpu.commit.function_calls                30618                       # Number of function calls committed.
system.cpu.commit.int_insts                   1016144                       # Number of committed integer instructions.
system.cpu.commit.loads                        160773                       # Number of loads committed
system.cpu.commit.membars                         142                       # Number of memory barriers committed
system.cpu.commit.op_class_0::No_OpClass           35      0.00%      0.00% # Class of committed instruction
system.cpu.commit.op_class_0::IntAlu           521896     50.39%     50.39% # Class of committed instruction
system.cpu.commit.op_class_0::IntMult          158304     15.28%     65.68% # Class of committed instruction
system.cpu.commit.op_class_0::IntDiv            60283      5.82%     71.50% # Class of committed instruction
system.cpu.commit.op_class_0::FloatAdd              0      0.00%     71.50% # Class of committed instruction
system.cpu.commit.op_class_0::FloatCmp              0      0.00%     71.50% # Class of committed instruction
system.cpu.commit.op_class_0::FloatCvt              0      0.00%     71.50% # Class of committed instruction
system.cpu.commit.op_class_0::FloatMult             0      0.00%     71.50% # Class of committed instruction
system.cpu.commit.op_class_0::FloatMultAcc            0      0.00%     71.50% # Class of committed instruction
system.cpu.commit.op_class_0::FloatDiv              0      0.00%     71.50% # Class of committed instruction
system.cpu.commit.op_class_0::FloatMisc             0      0.00%     71.50% # Class of committed instruction
system.cpu.commit.op_class_0::FloatSqrt             0      0.00%     71.50% # Class of committed instruction
system.cpu.commit.op_class_0::SimdAdd              83      0.01%     71.51% # Class of committed instruction
system.cpu.commit.op_class_0::SimdAddAcc            0      0.00%     71.51% # Class of committed instruction
system.cpu.commit.op_class_0::SimdAlu             138      0.01%     71.52% # Class of committed instruction
system.cpu.commit.op_class_0::SimdCmp             140      0.01%     71.53% # Class of committed instruction
system.cpu.commit.op_class_0::SimdCvt               0      0.00%     71.53% # Class of committed instruction
system.cpu.commit.op_class_0::SimdMisc            103      0.01%     71.54% # Class of committed instruction
system.cpu.commit.op_class_0::SimdMult              0      0.00%     71.54% # Class of committed instruction
system.cpu.commit.op_class_0::SimdMultAcc            0      0.00%     71.54% # Class of committed instruction
system.cpu.commit.op_class_0::SimdShift             0      0.00%     71.54% # Class of committed instruction
system.cpu.commit.op_class_0::SimdShiftAcc            0      0.00%     71.54% # Class of committed instruction
system.cpu.commit.op_class_0::SimdDiv               0      0.00%     71.54% # Class of committed instruction
system.cpu.commit.op_class_0::SimdSqrt              0      0.00%     71.54% # Class of committed instruction
system.cpu.commit.op_class_0::SimdFloatAdd            0      0.00%     71.54% # Class of committed instruction
system.cpu.commit.op_class_0::SimdFloatAlu            0      0.00%     71.54% # Class of committed instruction
system.cpu.commit.op_class_0::SimdFloatCmp            0      0.00%     71.54% # Class of committed instruction
system.cpu.commit.op_class_0::SimdFloatCvt            0      0.00%     71.54% # Class of committed instruction
system.cpu.commit.op_class_0::SimdFloatDiv            0      0.00%     71.54% # Class of committed instruction
system.cpu.commit.op_class_0::SimdFloatMisc            0      0.00%     71.54% # Class of committed instruction
system.cpu.commit.op_class_0::SimdFloatMult            0      0.00%     71.54% # Class of committed instruction
system.cpu.commit.op_class_0::SimdFloatMultAcc            0      0.00%     71.54% # Class of committed instruction
system.cpu.commit.op_class_0::SimdFloatSqrt            0      0.00%     71.54% # Class of committed instruction
system.cpu.commit.op_class_0::SimdReduceAdd            0      0.00%     71.54% # Class of committed instruction
system.cpu.commit.op_class_0::SimdReduceAlu            0      0.00%     71.54% # Class of committed instruction
system.cpu.commit.op_class_0::SimdReduceCmp            0      0.00%     71.54% # Class of committed instruction
system.cpu.commit.op_class_0::SimdFloatReduceAdd            0      0.00%     71.54% # Class of committed instruction
system.cpu.commit.op_class_0::SimdFloatReduceCmp            0      0.00%     71.54% # Class of committed instruction
system.cpu.commit.op_class_0::SimdAes               0      0.00%     71.54% # Class of committed instruction
system.cpu.commit.op_class_0::SimdAesMix            0      0.00%     71.54% # Class of committed instruction
system.cpu.commit.op_class_0::SimdSha1Hash            0      0.00%     71.54% # Class of committed instruction
system.cpu.commit.op_class_0::SimdSha1Hash2            0      0.00%     71.54% # Class of committed instruction
system.cpu.commit.op_class_0::SimdSha256Hash            0      0.00%     71.54% # Class of committed instruction
system.cpu.commit.op_class_0::SimdSha256Hash2            0      0.00%     71.54% # Class of committed instruction
system.cpu.commit.op_class_0::SimdShaSigma2            0      0.00%     71.54% # Class of committed instruction
system.cpu.commit.op_class_0::SimdShaSigma3            0      0.00%     71.54% # Class of committed instruction
system.cpu.commit.op_class_0::SimdPredAlu            0      0.00%     71.54% # Class of committed instruction
system.cpu.commit.op_class_0::MemRead          160773     15.52%     87.07% # Class of committed instruction
system.cpu.commit.op_class_0::MemWrite         133941     12.93%    100.00% # Class of committed instruction
system.cpu.commit.op_class_0::FloatMemRead            0      0.00%    100.00% # Class of committed instruction
system.cpu.commit.op_class_0::FloatMemWrite            0      0.00%    100.00% # Class of committed instruction
system.cpu.commit.op_class_0::IprAccess             0      0.00%    100.00% # Class of committed instruction
system.cpu.commit.op_class_0::InstPrefetch            0      0.00%    100.00% # Class of committed instruction
system.cpu.commit.op_class_0::total           1035696                       # Class of committed instruction
system.cpu.commit.refs                         294714                       # Number of memory references committed
system.cpu.commit.swp_count                         0                       # Number of s/w prefetches committed
system.cpu.commit.vec_insts                      1073                       # Number of committed Vector instructions.
system.cpu.committedInsts                     1000005                       # Number of Instructions Simulated
system.cpu.committedOps                       1035288                       # Number of Ops (including micro ops) Simulated
system.cpu.cpi                               1.552860                       # CPI: Cycles Per Instruction
system.cpu.cpi_total                         1.552860                       # CPI: Total CPI of All Threads
system.cpu.decode.BlockedCycles               1102195                       # Number of cycles decode is blocked
system.cpu.decode.BranchMispred                   306                       # Number of times decode detected a branch misprediction
system.cpu.decode.BranchResolved                70557                       # Number of times decode resolved a branch
system.cpu.decode.DecodedInsts                1752631                       # Number of instructions handled by decode
system.cpu.decode.IdleCycles                   130444                       # Number of cycles decode is idle
system.cpu.decode.RunCycles                    213912                       # Number of cycles decode is running
system.cpu.decode.SquashCycles                   4967                       # Number of cycles decode is squashing
system.cpu.decode.SquashedInsts                  1012                       # Number of squashed instructions handled by decode
system.cpu.decode.UnblockCycles                 52621                       # Number of cycles decode is unblocking
system.cpu.dtb.accesses                             0                       # DTB accesses
system.cpu.dtb.align_faults                         0                       # Number of TLB faults due to alignment restrictions
system.cpu.dtb.domain_faults                        0                       # Number of TLB faults due to domain restrictions
system.cpu.dtb.flush_entries                        0                       # Number of entries that have been flushed from TLB
system.cpu.dtb.flush_tlb                            0                       # Number of times complete TLB was flushed
system.cpu.dtb.flush_tlb_asid                       0                       # Number of times TLB was flushed by ASID
system.cpu.dtb.flush_tlb_mva                        0                       # Number of times TLB was flushed by MVA
system.cpu.dtb.flush_tlb_mva_asid                   0                       # Number of times TLB was flushed by MVA & ASID
system.cpu.dtb.hits                                 0                       # DTB hits
system.cpu.dtb.inst_accesses                        0                       # ITB inst accesses
system.cpu.dtb.inst_hits                            0                       # ITB inst hits
system.cpu.dtb.inst_misses                          0                       # ITB inst misses
system.cpu.dtb.misses                               0                       # DTB misses
system.cpu.dtb.perms_faults                         0                       # Number of TLB faults due to permissions restrictions
system.cpu.dtb.prefetch_faults                      0                       # Number of TLB faults due to prefetch
system.cpu.dtb.read_accesses                        0                       # DTB read accesses
system.cpu.dtb.read_hits                            0                       # DTB read hits
system.cpu.dtb.read_misses                          0                       # DTB read misses
system.cpu.dtb.stage2_mmu.stage2_tlb.accesses            0                       # DTB accesses
system.cpu.dtb.stage2_mmu.stage2_tlb.align_faults            0                       # Number of TLB faults due to alignment restrictions
system.cpu.dtb.stage2_mmu.stage2_tlb.domain_faults            0                       # Number of TLB faults due to domain restrictions
system.cpu.dtb.stage2_mmu.stage2_tlb.flush_entries            0                       # Number of entries that have been flushed from TLB
system.cpu.dtb.stage2_mmu.stage2_tlb.flush_tlb            0                       # Number of times complete TLB was flushed
system.cpu.dtb.stage2_mmu.stage2_tlb.flush_tlb_asid            0                       # Number of times TLB was flushed by ASID
system.cpu.dtb.stage2_mmu.stage2_tlb.flush_tlb_mva            0                       # Number of times TLB was flushed by MVA
system.cpu.dtb.stage2_mmu.stage2_tlb.flush_tlb_mva_asid            0                       # Number of times TLB was flushed by MVA & ASID
system.cpu.dtb.stage2_mmu.stage2_tlb.hits            0                       # DTB hits
system.cpu.dtb.stage2_mmu.stage2_tlb.inst_accesses            0                       # ITB inst accesses
system.cpu.dtb.stage2_mmu.stage2_tlb.inst_hits            0                       # ITB inst hits
system.cpu.dtb.stage2_mmu.stage2_tlb.inst_misses            0                       # ITB inst misses
system.cpu.dtb.stage2_mmu.stage2_tlb.misses            0                       # DTB misses
system.cpu.dtb.stage2_mmu.stage2_tlb.perms_faults            0                       # Number of TLB faults due to permissions restrictions
system.cpu.dtb.stage2_mmu.stage2_tlb.prefetch_faults            0                       # Number of TLB faults due to prefetch
system.cpu.dtb.stage2_mmu.stage2_tlb.read_accesses            0                       # DTB read accesses
system.cpu.dtb.stage2_mmu.stage2_tlb.read_hits            0                       # DTB read hits
system.cpu.dtb.stage2_mmu.stage2_tlb.read_misses            0                       # DTB read misses
system.cpu.dtb.stage2_mmu.stage2_tlb.walker.walkRequestOrigin_Requested::Data            0                       # Table walker requests started/completed, data/inst
system.cpu.dtb.stage2_mmu.stage2_tlb.walker.walkRequestOrigin_Requested::Inst            0                       # Table walker requests started/completed, data/inst
system.cpu.dtb.stage2_mmu.stage2_tlb.walker.walkRequestOrigin_Requested::total            0                       # Table walker requests started/completed, data/inst
system.cpu.dtb.stage2_mmu.stage2_tlb.walker.walkRequestOrigin_Completed::Data            0                       # Table walker requests started/completed, data/inst
system.cpu.dtb.stage2_mmu.stage2_tlb.walker.walkRequestOrigin_Completed::Inst            0                       # Table walker requests started/completed, data/inst
system.cpu.dtb.stage2_mmu.stage2_tlb.walker.walkRequestOrigin_Completed::total            0                       # Table walker requests started/completed, data/inst
system.cpu.dtb.stage2_mmu.stage2_tlb.walker.walkRequestOrigin::total            0                       # Table walker requests started/completed, data/inst
system.cpu.dtb.stage2_mmu.stage2_tlb.walker.walks            0                       # Table walker walks requested
system.cpu.dtb.stage2_mmu.stage2_tlb.write_accesses            0                       # DTB write accesses
system.cpu.dtb.stage2_mmu.stage2_tlb.write_hits            0                       # DTB write hits
system.cpu.dtb.stage2_mmu.stage2_tlb.write_misses            0                       # DTB write misses
system.cpu.dtb.walker.walkRequestOrigin_Requested::Data            0                       # Table walker requests started/completed, data/inst
system.cpu.dtb.walker.walkRequestOrigin_Requested::Inst            0                       # Table walker requests started/completed, data/inst
system.cpu.dtb.walker.walkRequestOrigin_Requested::total            0                       # Table walker requests started/completed, data/inst
system.cpu.dtb.walker.walkRequestOrigin_Completed::Data            0                       # Table walker requests started/completed, data/inst
system.cpu.dtb.walker.walkRequestOrigin_Completed::Inst            0                       # Table walker requests started/completed, data/inst
system.cpu.dtb.walker.walkRequestOrigin_Completed::total            0                       # Table walker requests started/completed, data/inst
system.cpu.dtb.walker.walkRequestOrigin::total            0                       # Table walker requests started/completed, data/inst
system.cpu.dtb.walker.walks                         0                       # Table walker walks requested
system.cpu.dtb.write_accesses                       0                       # DTB write accesses
system.cpu.dtb.write_hits                           0                       # DTB write hits
system.cpu.dtb.write_misses                         0                       # DTB write misses
system.cpu.fetch.Branches                      146726                       # Number of branches that fetch encountered
system.cpu.fetch.CacheLines                    217908                       # Number of cache lines fetched
system.cpu.fetch.Cycles                       1258499                       # Number of cycles fetch has run and was not squashing or blocked
system.cpu.fetch.IcacheSquashes                  2843                       # Number of outstanding Icache misses that were squashed
system.cpu.fetch.IcacheWaitRetryStallCycles           47                       # Number of stall cycles due to full MSHR
system.cpu.fetch.Insts                        1771468                       # Number of instructions fetch has processed
system.cpu.fetch.MiscStallCycles                    5                       # Number of cycles fetch has spent waiting on interrupts, or bad addresses, or out of MSHRs
system.cpu.fetch.SquashCycles                   10544                       # Number of cycles fetch has spent squashing
system.cpu.fetch.branchRate                  0.094487                       # Number of branch fetches per cycle
system.cpu.fetch.icacheStallCycles             240316                       # Number of cycles fetch is stalled on an Icache miss
system.cpu.fetch.predictedBranches             122045                       # Number of branches that fetch has predicted taken
system.cpu.fetch.rate                        1.140772                       # Number of inst fetches per cycle
system.cpu.fetch.rateDist::samples            1504139                       # Number of instructions fetched each cycle (Total)
system.cpu.fetch.rateDist::mean              1.218506                       # Number of instructions fetched each cycle (Total)
system.cpu.fetch.rateDist::stdev             2.564721                       # Number of instructions fetched each cycle (Total)
system.cpu.fetch.rateDist::underflows               0      0.00%      0.00% # Number of instructions fetched each cycle (Total)
system.cpu.fetch.rateDist::0                  1162884     77.31%     77.31% # Number of instructions fetched each cycle (Total)
system.cpu.fetch.rateDist::1                    24948      1.66%     78.97% # Number of instructions fetched each cycle (Total)
system.cpu.fetch.rateDist::2                    56864      3.78%     82.75% # Number of instructions fetched each cycle (Total)
system.cpu.fetch.rateDist::3                    19831      1.32%     84.07% # Number of instructions fetched each cycle (Total)
system.cpu.fetch.rateDist::4                    26805      1.78%     85.85% # Number of instructions fetched each cycle (Total)
system.cpu.fetch.rateDist::5                    36228      2.41%     88.26% # Number of instructions fetched each cycle (Total)
system.cpu.fetch.rateDist::6                    28023      1.86%     90.12% # Number of instructions fetched each cycle (Total)
system.cpu.fetch.rateDist::7                    10312      0.69%     90.81% # Number of instructions fetched each cycle (Total)
system.cpu.fetch.rateDist::8                   138244      9.19%    100.00% # Number of instructions fetched each cycle (Total)
system.cpu.fetch.rateDist::overflows                0      0.00%    100.00% # Number of instructions fetched each cycle (Total)
system.cpu.fetch.rateDist::min_value                0                       # Number of instructions fetched each cycle (Total)
system.cpu.fetch.rateDist::max_value                8                       # Number of instructions fetched each cycle (Total)
system.cpu.fetch.rateDist::total              1504139                       # Number of instructions fetched each cycle (Total)
system.cpu.icache.prefetcher.num_hwpf_issued         2266                       # number of hwpf issued
system.cpu.icache.prefetcher.pfBufferHit          689                       # number of redundant prefetches already in prefetch queue
system.cpu.icache.prefetcher.pfIdentified         3078                       # number of prefetch candidates identified
system.cpu.icache.prefetcher.pfInCache              0                       # number of redundant prefetches already in cache/mshr dropped
system.cpu.icache.prefetcher.pfRemovedFull           16                       # number of prefetches dropped due to prefetch queue size
system.cpu.icache.prefetcher.pfSpanPage          5382                       # number of prefetches that crossed the page
system.cpu.idleCycles                           48729                       # Total number of cycles that the CPU has spent unscheduled due to idling
system.cpu.iew.branchMispredicts                 1229                       # Number of branch mispredicts detected at execute
system.cpu.iew.exec_branches                   132994                       # Number of branches executed
system.cpu.iew.exec_nop                           449                       # number of nop insts executed
system.cpu.iew.exec_rate                     0.979395                       # Inst execution rate
system.cpu.iew.exec_refs                       472804                       # number of memory reference insts executed
system.cpu.iew.exec_stores                     198162                       # Number of stores executed
system.cpu.iew.exec_swp                             0                       # number of swp insts executed
system.cpu.iew.iewBlockCycles                  326694                       # Number of cycles IEW is blocking
system.cpu.iew.iewDispLoadInsts                276019                       # Number of dispatched load instructions
system.cpu.iew.iewDispNonSpecInsts                222                       # Number of dispatched non-speculative instructions
system.cpu.iew.iewDispSquashedInsts               371                       # Number of squashed instructions skipped by dispatch
system.cpu.iew.iewDispStoreInsts               228759                       # Number of dispatched store instructions
system.cpu.iew.iewDispatchedInsts             1705126                       # Number of instructions dispatched to IQ
system.cpu.iew.iewExecLoadInsts                274642                       # Number of load instructions executed
system.cpu.iew.iewExecSquashedInsts              3526                       # Number of squashed instructions skipped in execute
system.cpu.iew.iewExecutedInsts               1520871                       # Number of executed instructions
system.cpu.iew.iewIQFullEvents                  15341                       # Number of times the IQ has become full, causing a stall
system.cpu.iew.iewIdleCycles                        0                       # Number of cycles IEW is idle
system.cpu.iew.iewLSQFullEvents                 43255                       # Number of times the LSQ has become full, causing a stall
system.cpu.iew.iewSquashCycles                   4967                       # Number of cycles IEW is squashing
system.cpu.iew.iewUnblockCycles                 67763                       # Number of cycles IEW is unblocking
system.cpu.iew.lsq.thread0.blockedLoads             0                       # Number of blocked loads due to partial load-store forwarding
system.cpu.iew.lsq.thread0.cacheBlocked          3417                       # Number of times an access to memory failed due to the cache being blocked
system.cpu.iew.lsq.thread0.forwLoads              138                       # Number of loads that had data forwarded from stores
system.cpu.iew.lsq.thread0.ignoredResponses           10                       # Number of memory responses ignored because the instruction is squashed
system.cpu.iew.lsq.thread0.invAddrLoads             0                       # Number of loads ignored due to an invalid address
system.cpu.iew.lsq.thread0.invAddrSwpfs             0                       # Number of software prefetches ignored due to an invalid address
system.cpu.iew.lsq.thread0.memOrderViolation           37                       # Number of memory ordering violations
system.cpu.iew.lsq.thread0.rescheduledLoads          139                       # Number of loads that were rescheduled
system.cpu.iew.lsq.thread0.squashedLoads       115236                       # Number of loads squashed
system.cpu.iew.lsq.thread0.squashedStores        94802                       # Number of stores squashed
system.cpu.iew.memOrderViolationEvents             37                       # Number of memory order violations
system.cpu.iew.predictedNotTakenIncorrect          742                       # Number of branches that were predicted not taken incorrectly
system.cpu.iew.predictedTakenIncorrect            487                       # Number of branches that were predicted taken incorrectly
system.cpu.iew.wb_consumers                   1603082                       # num instructions consuming a value
system.cpu.iew.wb_count                       1455413                       # cumulative count of insts written-back
system.cpu.iew.wb_fanout                     0.645583                       # average fanout of values written-back
system.cpu.iew.wb_producers                   1034922                       # num instructions producing a value
system.cpu.iew.wb_rate                       0.937242                       # insts written-back per cycle
system.cpu.iew.wb_sent                        1519225                       # cumulative count of insts sent to commit
system.cpu.int_regfile_reads                  2249940                       # number of integer regfile reads
system.cpu.int_regfile_writes                 1261133                       # number of integer regfile writes
system.cpu.ipc                               0.643973                       # IPC: Instructions Per Cycle
system.cpu.ipc_total                         0.643973                       # IPC: Total IPC of All Threads
system.cpu.iq.FU_type_0::No_OpClass                40      0.00%      0.00% # Type of FU issued
system.cpu.iq.FU_type_0::IntAlu                782680     51.34%     51.35% # Type of FU issued
system.cpu.iq.FU_type_0::IntMult               199331     13.08%     64.42% # Type of FU issued
system.cpu.iq.FU_type_0::IntDiv                 68078      4.47%     68.89% # Type of FU issued
system.cpu.iq.FU_type_0::FloatAdd                   0      0.00%     68.89% # Type of FU issued
system.cpu.iq.FU_type_0::FloatCmp                   0      0.00%     68.89% # Type of FU issued
system.cpu.iq.FU_type_0::FloatCvt                   0      0.00%     68.89% # Type of FU issued
system.cpu.iq.FU_type_0::FloatMult                  0      0.00%     68.89% # Type of FU issued
system.cpu.iq.FU_type_0::FloatMultAcc               0      0.00%     68.89% # Type of FU issued
system.cpu.iq.FU_type_0::FloatDiv                   0      0.00%     68.89% # Type of FU issued
system.cpu.iq.FU_type_0::FloatMisc                  0      0.00%     68.89% # Type of FU issued
system.cpu.iq.FU_type_0::FloatSqrt                  0      0.00%     68.89% # Type of FU issued
system.cpu.iq.FU_type_0::SimdAdd                   94      0.01%     68.89% # Type of FU issued
system.cpu.iq.FU_type_0::SimdAddAcc                 0      0.00%     68.89% # Type of FU issued
system.cpu.iq.FU_type_0::SimdAlu                  160      0.01%     68.90% # Type of FU issued
system.cpu.iq.FU_type_0::SimdCmp                  156      0.01%     68.92% # Type of FU issued
system.cpu.iq.FU_type_0::SimdCvt                    0      0.00%     68.92% # Type of FU issued
system.cpu.iq.FU_type_0::SimdMisc                 109      0.01%     68.92% # Type of FU issued
system.cpu.iq.FU_type_0::SimdMult                   0      0.00%     68.92% # Type of FU issued
system.cpu.iq.FU_type_0::SimdMultAcc                0      0.00%     68.92% # Type of FU issued
system.cpu.iq.FU_type_0::SimdShift                  0      0.00%     68.92% # Type of FU issued
system.cpu.iq.FU_type_0::SimdShiftAcc               0      0.00%     68.92% # Type of FU issued
system.cpu.iq.FU_type_0::SimdDiv                    0      0.00%     68.92% # Type of FU issued
system.cpu.iq.FU_type_0::SimdSqrt                   0      0.00%     68.92% # Type of FU issued
system.cpu.iq.FU_type_0::SimdFloatAdd               0      0.00%     68.92% # Type of FU issued
system.cpu.iq.FU_type_0::SimdFloatAlu               0      0.00%     68.92% # Type of FU issued
system.cpu.iq.FU_type_0::SimdFloatCmp               0      0.00%     68.92% # Type of FU issued
system.cpu.iq.FU_type_0::SimdFloatCvt               0      0.00%     68.92% # Type of FU issued
system.cpu.iq.FU_type_0::SimdFloatDiv               0      0.00%     68.92% # Type of FU issued
system.cpu.iq.FU_type_0::SimdFloatMisc              0      0.00%     68.92% # Type of FU issued
system.cpu.iq.FU_type_0::SimdFloatMult              0      0.00%     68.92% # Type of FU issued
system.cpu.iq.FU_type_0::SimdFloatMultAcc            0      0.00%     68.92% # Type of FU issued
system.cpu.iq.FU_type_0::SimdFloatSqrt              0      0.00%     68.92% # Type of FU issued
system.cpu.iq.FU_type_0::SimdReduceAdd              0      0.00%     68.92% # Type of FU issued
system.cpu.iq.FU_type_0::SimdReduceAlu              0      0.00%     68.92% # Type of FU issued
system.cpu.iq.FU_type_0::SimdReduceCmp              0      0.00%     68.92% # Type of FU issued
system.cpu.iq.FU_type_0::SimdFloatReduceAdd            0      0.00%     68.92% # Type of FU issued
system.cpu.iq.FU_type_0::SimdFloatReduceCmp            0      0.00%     68.92% # Type of FU issued
system.cpu.iq.FU_type_0::SimdAes                    0      0.00%     68.92% # Type of FU issued
system.cpu.iq.FU_type_0::SimdAesMix                 0      0.00%     68.92% # Type of FU issued
system.cpu.iq.FU_type_0::SimdSha1Hash               0      0.00%     68.92% # Type of FU issued
system.cpu.iq.FU_type_0::SimdSha1Hash2              0      0.00%     68.92% # Type of FU issued
system.cpu.iq.FU_type_0::SimdSha256Hash             0      0.00%     68.92% # Type of FU issued
system.cpu.iq.FU_type_0::SimdSha256Hash2            0      0.00%     68.92% # Type of FU issued
system.cpu.iq.FU_type_0::SimdShaSigma2              0      0.00%     68.92% # Type of FU issued
system.cpu.iq.FU_type_0::SimdShaSigma3              0      0.00%     68.92% # Type of FU issued
system.cpu.iq.FU_type_0::SimdPredAlu                0      0.00%     68.92% # Type of FU issued
system.cpu.iq.FU_type_0::MemRead               275378     18.06%     86.99% # Type of FU issued
system.cpu.iq.FU_type_0::MemWrite              198372     13.01%    100.00% # Type of FU issued
system.cpu.iq.FU_type_0::FloatMemRead               0      0.00%    100.00% # Type of FU issued
system.cpu.iq.FU_type_0::FloatMemWrite              0      0.00%    100.00% # Type of FU issued
system.cpu.iq.FU_type_0::IprAccess                  0      0.00%    100.00% # Type of FU issued
system.cpu.iq.FU_type_0::InstPrefetch               0      0.00%    100.00% # Type of FU issued
system.cpu.iq.FU_type_0::total                1524398                       # Type of FU issued
system.cpu.iq.fp_alu_accesses                       0                       # Number of floating point alu accesses
system.cpu.iq.fp_inst_queue_reads                   0                       # Number of floating instruction queue reads
system.cpu.iq.fp_inst_queue_wakeup_accesses            0                       # Number of floating instruction queue wakeup accesses
system.cpu.iq.fp_inst_queue_writes                  0                       # Number of floating instruction queue writes
system.cpu.iq.fu_busy_cnt                     1173948                       # FU busy when requested
system.cpu.iq.fu_busy_rate                   0.770106                       # FU busy rate (busy events/executed inst)
system.cpu.iq.fu_full::No_OpClass                   0      0.00%      0.00% # attempts to use FU when none available
system.cpu.iq.fu_full::IntAlu                    6968      0.59%      0.59% # attempts to use FU when none available
system.cpu.iq.fu_full::IntMult                 610754     52.03%     52.62% # attempts to use FU when none available
system.cpu.iq.fu_full::IntDiv                  536234     45.68%     98.30% # attempts to use FU when none available
system.cpu.iq.fu_full::FloatAdd                     0      0.00%     98.30% # attempts to use FU when none available
system.cpu.iq.fu_full::FloatCmp                     0      0.00%     98.30% # attempts to use FU when none available
system.cpu.iq.fu_full::FloatCvt                     0      0.00%     98.30% # attempts to use FU when none available
system.cpu.iq.fu_full::FloatMult                    0      0.00%     98.30% # attempts to use FU when none available
system.cpu.iq.fu_full::FloatMultAcc                 0      0.00%     98.30% # attempts to use FU when none available
system.cpu.iq.fu_full::FloatDiv                     0      0.00%     98.30% # attempts to use FU when none available
system.cpu.iq.fu_full::FloatMisc                    0      0.00%     98.30% # attempts to use FU when none available
system.cpu.iq.fu_full::FloatSqrt                    0      0.00%     98.30% # attempts to use FU when none available
system.cpu.iq.fu_full::SimdAdd                      0      0.00%     98.30% # attempts to use FU when none available
system.cpu.iq.fu_full::SimdAddAcc                   0      0.00%     98.30% # attempts to use FU when none available
system.cpu.iq.fu_full::SimdAlu                      1      0.00%     98.30% # attempts to use FU when none available
system.cpu.iq.fu_full::SimdCmp                      6      0.00%     98.30% # attempts to use FU when none available
system.cpu.iq.fu_full::SimdCvt                      0      0.00%     98.30% # attempts to use FU when none available
system.cpu.iq.fu_full::SimdMisc                     0      0.00%     98.30% # attempts to use FU when none available
system.cpu.iq.fu_full::SimdMult                     0      0.00%     98.30% # attempts to use FU when none available
system.cpu.iq.fu_full::SimdMultAcc                  0      0.00%     98.30% # attempts to use FU when none available
system.cpu.iq.fu_full::SimdShift                    0      0.00%     98.30% # attempts to use FU when none available
system.cpu.iq.fu_full::SimdShiftAcc                 0      0.00%     98.30% # attempts to use FU when none available
system.cpu.iq.fu_full::SimdDiv                      0      0.00%     98.30% # attempts to use FU when none available
system.cpu.iq.fu_full::SimdSqrt                     0      0.00%     98.30% # attempts to use FU when none available
system.cpu.iq.fu_full::SimdFloatAdd                 0      0.00%     98.30% # attempts to use FU when none available
system.cpu.iq.fu_full::SimdFloatAlu                 0      0.00%     98.30% # attempts to use FU when none available
system.cpu.iq.fu_full::SimdFloatCmp                 0      0.00%     98.30% # attempts to use FU when none available
system.cpu.iq.fu_full::SimdFloatCvt                 0      0.00%     98.30% # attempts to use FU when none available
system.cpu.iq.fu_full::SimdFloatDiv                 0      0.00%     98.30% # attempts to use FU when none available
system.cpu.iq.fu_full::SimdFloatMisc                0      0.00%     98.30% # attempts to use FU when none available
system.cpu.iq.fu_full::SimdFloatMult                0      0.00%     98.30% # attempts to use FU when none available
system.cpu.iq.fu_full::SimdFloatMultAcc             0      0.00%     98.30% # attempts to use FU when none available
system.cpu.iq.fu_full::SimdFloatSqrt                0      0.00%     98.30% # attempts to use FU when none available
system.cpu.iq.fu_full::SimdReduceAdd                0      0.00%     98.30% # attempts to use FU when none available
system.cpu.iq.fu_full::SimdReduceAlu                0      0.00%     98.30% # attempts to use FU when none available
system.cpu.iq.fu_full::SimdReduceCmp                0      0.00%     98.30% # attempts to use FU when none available
system.cpu.iq.fu_full::SimdFloatReduceAdd            0      0.00%     98.30% # attempts to use FU when none available
system.cpu.iq.fu_full::SimdFloatReduceCmp            0      0.00%     98.30% # attempts to use FU when none available
system.cpu.iq.fu_full::SimdAes                      0      0.00%     98.30% # attempts to use FU when none available
system.cpu.iq.fu_full::SimdAesMix                   0      0.00%     98.30% # attempts to use FU when none available
system.cpu.iq.fu_full::SimdSha1Hash                 0      0.00%     98.30% # attempts to use FU when none available
system.cpu.iq.fu_full::SimdSha1Hash2                0      0.00%     98.30% # attempts to use FU when none available
system.cpu.iq.fu_full::SimdSha256Hash               0      0.00%     98.30% # attempts to use FU when none available
system.cpu.iq.fu_full::SimdSha256Hash2              0      0.00%     98.30% # attempts to use FU when none available
system.cpu.iq.fu_full::SimdShaSigma2                0      0.00%     98.30% # attempts to use FU when none available
system.cpu.iq.fu_full::SimdShaSigma3                0      0.00%     98.30% # attempts to use FU when none available
system.cpu.iq.fu_full::SimdPredAlu                  0      0.00%     98.30% # attempts to use FU when none available
system.cpu.iq.fu_full::MemRead                  11282      0.96%     99.26% # attempts to use FU when none available
system.cpu.iq.fu_full::MemWrite                  8703      0.74%    100.00% # attempts to use FU when none available
system.cpu.iq.fu_full::FloatMemRead                 0      0.00%    100.00% # attempts to use FU when none available
system.cpu.iq.fu_full::FloatMemWrite                0      0.00%    100.00% # attempts to use FU when none available
system.cpu.iq.fu_full::IprAccess                    0      0.00%    100.00% # attempts to use FU when none available
system.cpu.iq.fu_full::InstPrefetch                 0      0.00%    100.00% # attempts to use FU when none available
system.cpu.iq.int_alu_accesses                2697011                       # Number of integer alu accesses
system.cpu.iq.int_inst_queue_reads            5750836                       # Number of integer instruction queue reads
system.cpu.iq.int_inst_queue_wakeup_accesses      1454242                       # Number of integer instruction queue wakeup accesses
system.cpu.iq.int_inst_queue_writes           2372454                       # Number of integer instruction queue writes
system.cpu.iq.iqInstsAdded                    1704455                       # Number of instructions added to the IQ (excludes non-spec)
system.cpu.iq.iqInstsIssued                   1524398                       # Number of instructions issued
system.cpu.iq.iqNonSpecInstsAdded                 222                       # Number of non-speculative instructions added to the IQ
system.cpu.iq.iqSquashedInstsExamined          669322                       # Number of squashed instructions iterated over during squash; mainly for profiling
system.cpu.iq.iqSquashedInstsIssued             26500                       # Number of squashed instructions issued
system.cpu.iq.iqSquashedNonSpecRemoved             53                       # Number of squashed non-spec instructions that were removed
system.cpu.iq.iqSquashedOperandsExamined       516031                       # Number of squashed operands that are examined and possibly removed from graph
system.cpu.iq.issued_per_cycle::samples       1504139                       # Number of insts issued each cycle
system.cpu.iq.issued_per_cycle::mean         1.013469                       # Number of insts issued each cycle
system.cpu.iq.issued_per_cycle::stdev        1.593463                       # Number of insts issued each cycle
system.cpu.iq.issued_per_cycle::underflows            0      0.00%      0.00% # Number of insts issued each cycle
system.cpu.iq.issued_per_cycle::0              895791     59.56%     59.56% # Number of insts issued each cycle
system.cpu.iq.issued_per_cycle::1              197321     13.12%     72.67% # Number of insts issued each cycle
system.cpu.iq.issued_per_cycle::2              181936     12.10%     84.77% # Number of insts issued each cycle
system.cpu.iq.issued_per_cycle::3               97678      6.49%     91.26% # Number of insts issued each cycle
system.cpu.iq.issued_per_cycle::4               45294      3.01%     94.27% # Number of insts issued each cycle
system.cpu.iq.issued_per_cycle::5               46440      3.09%     97.36% # Number of insts issued each cycle
system.cpu.iq.issued_per_cycle::6               22175      1.47%     98.84% # Number of insts issued each cycle
system.cpu.iq.issued_per_cycle::7               16287      1.08%     99.92% # Number of insts issued each cycle
system.cpu.iq.issued_per_cycle::8                1217      0.08%    100.00% # Number of insts issued each cycle
system.cpu.iq.issued_per_cycle::overflows            0      0.00%    100.00% # Number of insts issued each cycle
system.cpu.iq.issued_per_cycle::min_value            0                       # Number of insts issued each cycle
system.cpu.iq.issued_per_cycle::max_value            8                       # Number of insts issued each cycle
system.cpu.iq.issued_per_cycle::total         1504139                       # Number of insts issued each cycle
system.cpu.iq.rate                           0.981666                       # Inst issue rate
system.cpu.iq.vec_alu_accesses                   1295                       # Number of vector alu accesses
system.cpu.iq.vec_inst_queue_reads               2546                       # Number of vector instruction queue reads
system.cpu.iq.vec_inst_queue_wakeup_accesses         1171                       # Number of vector instruction queue wakeup accesses
system.cpu.iq.vec_inst_queue_writes              1579                       # Number of vector instruction queue writes
system.cpu.itb.accesses                             0                       # DTB accesses
system.cpu.itb.align_faults                         0                       # Number of TLB faults due to alignment restrictions
system.cpu.itb.domain_faults                        0                       # Number of TLB faults due to domain restrictions
system.cpu.itb.flush_entries                        0                       # Number of entries that have been flushed from TLB
system.cpu.itb.flush_tlb                            0                       # Number of times complete TLB was flushed
system.cpu.itb.flush_tlb_asid                       0                       # Number of times TLB was flushed by ASID
system.cpu.itb.flush_tlb_mva                        0                       # Number of times TLB was flushed by MVA
system.cpu.itb.flush_tlb_mva_asid                   0                       # Number of times TLB was flushed by MVA & ASID
system.cpu.itb.hits                                 0                       # DTB hits
system.cpu.itb.inst_accesses                        0                       # ITB inst accesses
system.cpu.itb.inst_hits                            0                       # ITB inst hits
system.cpu.itb.inst_misses                          0                       # ITB inst misses
system.cpu.itb.misses                               0                       # DTB misses
system.cpu.itb.perms_faults                         0                       # Number of TLB faults due to permissions restrictions
system.cpu.itb.prefetch_faults                      0                       # Number of TLB faults due to prefetch
system.cpu.itb.read_accesses                        0                       # DTB read accesses
system.cpu.itb.read_hits                            0                       # DTB read hits
system.cpu.itb.read_misses                          0                       # DTB read misses
system.cpu.itb.stage2_mmu.stage2_tlb.accesses            0                       # DTB accesses
system.cpu.itb.stage2_mmu.stage2_tlb.align_faults            0                       # Number of TLB faults due to alignment restrictions
system.cpu.itb.stage2_mmu.stage2_tlb.domain_faults            0                       # Number of TLB faults due to domain restrictions
system.cpu.itb.stage2_mmu.stage2_tlb.flush_entries            0                       # Number of entries that have been flushed from TLB
system.cpu.itb.stage2_mmu.stage2_tlb.flush_tlb            0                       # Number of times complete TLB was flushed
system.cpu.itb.stage2_mmu.stage2_tlb.flush_tlb_asid            0                       # Number of times TLB was flushed by ASID
system.cpu.itb.stage2_mmu.stage2_tlb.flush_tlb_mva            0                       # Number of times TLB was flushed by MVA
system.cpu.itb.stage2_mmu.stage2_tlb.flush_tlb_mva_asid            0                       # Number of times TLB was flushed by MVA & ASID
system.cpu.itb.stage2_mmu.stage2_tlb.hits            0                       # DTB hits
system.cpu.itb.stage2_mmu.stage2_tlb.inst_accesses            0                       # ITB inst accesses
system.cpu.itb.stage2_mmu.stage2_tlb.inst_hits            0                       # ITB inst hits
system.cpu.itb.stage2_mmu.stage2_tlb.inst_misses            0                       # ITB inst misses
system.cpu.itb.stage2_mmu.stage2_tlb.misses            0                       # DTB misses
system.cpu.itb.stage2_mmu.stage2_tlb.perms_faults            0                       # Number of TLB faults due to permissions restrictions
system.cpu.itb.stage2_mmu.stage2_tlb.prefetch_faults            0                       # Number of TLB faults due to prefetch
system.cpu.itb.stage2_mmu.stage2_tlb.read_accesses            0                       # DTB read accesses
system.cpu.itb.stage2_mmu.stage2_tlb.read_hits            0                       # DTB read hits
system.cpu.itb.stage2_mmu.stage2_tlb.read_misses            0                       # DTB read misses
system.cpu.itb.stage2_mmu.stage2_tlb.walker.walkRequestOrigin_Requested::Data            0                       # Table walker requests started/completed, data/inst
system.cpu.itb.stage2_mmu.stage2_tlb.walker.walkRequestOrigin_Requested::Inst            0                       # Table walker requests started/completed, data/inst
system.cpu.itb.stage2_mmu.stage2_tlb.walker.walkRequestOrigin_Requested::total            0                       # Table walker requests started/completed, data/inst
system.cpu.itb.stage2_mmu.stage2_tlb.walker.walkRequestOrigin_Completed::Data            0                       # Table walker requests started/completed, data/inst
system.cpu.itb.stage2_mmu.stage2_tlb.walker.walkRequestOrigin_Completed::Inst            0                       # Table walker requests started/completed, data/inst
system.cpu.itb.stage2_mmu.stage2_tlb.walker.walkRequestOrigin_Completed::total            0                       # Table walker requests started/completed, data/inst
system.cpu.itb.stage2_mmu.stage2_tlb.walker.walkRequestOrigin::total            0                       # Table walker requests started/completed, data/inst
system.cpu.itb.stage2_mmu.stage2_tlb.walker.walks            0                       # Table walker walks requested
system.cpu.itb.stage2_mmu.stage2_tlb.write_accesses            0                       # DTB write accesses
system.cpu.itb.stage2_mmu.stage2_tlb.write_hits            0                       # DTB write hits
system.cpu.itb.stage2_mmu.stage2_tlb.write_misses            0                       # DTB write misses
system.cpu.itb.walker.walkRequestOrigin_Requested::Data            0                       # Table walker requests started/completed, data/inst
system.cpu.itb.walker.walkRequestOrigin_Requested::Inst            0                       # Table walker requests started/completed, data/inst
system.cpu.itb.walker.walkRequestOrigin_Requested::total            0                       # Table walker requests started/completed, data/inst
system.cpu.itb.walker.walkRequestOrigin_Completed::Data            0                       # Table walker requests started/completed, data/inst
system.cpu.itb.walker.walkRequestOrigin_Completed::Inst            0                       # Table walker requests started/completed, data/inst
system.cpu.itb.walker.walkRequestOrigin_Completed::total            0                       # Table walker requests started/completed, data/inst
system.cpu.itb.walker.walkRequestOrigin::total            0                       # Table walker requests started/completed, data/inst
system.cpu.itb.walker.walks                         0                       # Table walker walks requested
system.cpu.itb.write_accesses                       0                       # DTB write accesses
system.cpu.itb.write_hits                           0                       # DTB write hits
system.cpu.itb.write_misses                         0                       # DTB write misses
system.cpu.memDep0.conflictingLoads              4400                       # Number of conflicting loads.
system.cpu.memDep0.conflictingStores              342                       # Number of conflicting stores.
system.cpu.memDep0.insertedLoads               276019                       # Number of loads inserted to the mem dependence unit.
system.cpu.memDep0.insertedStores              228759                       # Number of stores inserted to the mem dependence unit.
system.cpu.misc_regfile_reads                  926318                       # number of misc regfile reads
system.cpu.misc_regfile_writes                    569                       # number of misc regfile writes
system.cpu.numCycles                          1552868                       # number of cpu cycles simulated
system.cpu.numWorkItemsCompleted                    0                       # number of work items this cpu completed
system.cpu.numWorkItemsStarted                      0                       # number of work items this cpu started
system.cpu.rename.BlockCycles                  453134                       # Number of cycles rename is blocking
system.cpu.rename.CommittedMaps                914731                       # Number of HB maps that are committed
system.cpu.rename.IQFullEvents                 102199                       # Number of times rename has blocked due to IQ full
system.cpu.rename.IdleCycles                   142323                       # Number of cycles rename is idle
system.cpu.rename.ROBFullEvents                    13                       # Number of times rename has blocked due to ROB full
system.cpu.rename.RenameLookups               2741722                       # Number of register rename lookups that rename has made
system.cpu.rename.RenamedInsts                1724327                       # Number of instructions processed by rename
system.cpu.rename.RenamedOperands             1506818                       # Number of destination operands rename has renamed
system.cpu.rename.RunCycles                    242608                       # Number of cycles rename is running
system.cpu.rename.SQFullEvents                 538933                       # Number of times rename has blocked due to SQ full
system.cpu.rename.SquashCycles                   4967                       # Number of cycles rename is squashing
system.cpu.rename.UnblockCycles                648470                       # Number of cycles rename is unblocking
system.cpu.rename.UndoneMaps                   592030                       # Number of HB maps that are undone due to squashing
system.cpu.rename.int_rename_lookups          2653369                       # Number of integer rename lookups
system.cpu.rename.serializeStallCycles          12637                       # count of cycles rename stalled for serializing inst
system.cpu.rename.serializingInsts                393                       # count of serializing insts renamed
system.cpu.rename.skidInsts                    245567                       # count of insts added to the skid buffer
system.cpu.rename.tempSerializingInsts            240                       # count of temporary serializing insts renamed
system.cpu.rename.vec_rename_lookups             1686                       # Number of vector rename lookups
system.cpu.rob.rob_reads                      2871178                       # The number of ROB reads
system.cpu.rob.rob_writes                     3159523                       # The number of ROB writes
system.cpu.timesIdled                             633                       # Number of times that the entire CPU went into an idle state and unscheduled itself
system.cpu.vec_regfile_reads                     1439                       # number of vector regfile reads
system.cpu.vec_regfile_writes                     638                       # number of vector regfile writes
system.cpu.workload.numSyscalls                    26                       # Number of system calls
system.membus.snoop_filter.hit_multi_requests            0                       # Number of requests hitting in the snoop filter with multiple (>1) holders of the requested data.
system.membus.snoop_filter.hit_multi_snoops            0                       # Number of snoops hitting in the snoop filter with multiple (>1) holders of the requested data.
system.membus.snoop_filter.hit_single_requests        13071                       # Number of requests hitting in the snoop filter with a single holder of the requested data.
system.membus.snoop_filter.hit_single_snoops            0                       # Number of snoops hitting in the snoop filter with a single holder of the requested data.
system.membus.snoop_filter.tot_requests         29035                       # Total number of requests made to the snoop filter.
system.membus.snoop_filter.tot_snoops               0                       # Total number of snoops made to the snoop filter.
system.tol2bus.snoop_filter.hit_multi_requests            1                       # Number of requests hitting in the snoop filter with multiple (>1) holders of the requested data.
system.tol2bus.snoop_filter.hit_multi_snoops            0                       # Number of snoops hitting in the snoop filter with multiple (>1) holders of the requested data.
system.tol2bus.snoop_filter.hit_single_requests        16208                       # Number of requests hitting in the snoop filter with a single holder of the requested data.
system.tol2bus.snoop_filter.hit_single_snoops           16                       # Number of snoops hitting in the snoop filter with a single holder of the requested data.
system.tol2bus.snoop_filter.tot_requests        32982                       # Total number of requests made to the snoop filter.
system.tol2bus.snoop_filter.tot_snoops             16                       # Total number of snoops made to the snoop filter.
system.membus.trans_dist::ReadResp                754                       # Transaction distribution
system.membus.trans_dist::WritebackDirty        13041                       # Transaction distribution
system.membus.trans_dist::CleanEvict               30                       # Transaction distribution
system.membus.trans_dist::ReadExReq             15203                       # Transaction distribution
system.membus.trans_dist::ReadExResp            15202                       # Transaction distribution
system.membus.trans_dist::ReadSharedReq           754                       # Transaction distribution
system.membus.trans_dist::InvalidateReq             7                       # Transaction distribution
system.membus.pkt_count_system.l2.mem_side::system.mem_ctrls.port        44991                       # Packet count per connected master and slave (bytes)
system.membus.pkt_count::total                  44991                       # Packet count per connected master and slave (bytes)
system.membus.pkt_size_system.l2.mem_side::system.mem_ctrls.port      1855808                       # Cumulative packet size per connected master and slave (bytes)
system.membus.pkt_size::total                 1855808                       # Cumulative packet size per connected master and slave (bytes)
system.membus.snoops                                0                       # Total snoops (count)
system.membus.snoopTraffic                          0                       # Total snoop traffic (bytes)
system.membus.snoop_fanout::samples             15964                       # Request fanout histogram
system.membus.snoop_fanout::mean                    0                       # Request fanout histogram
system.membus.snoop_fanout::stdev                   0                       # Request fanout histogram
system.membus.snoop_fanout::underflows              0      0.00%      0.00% # Request fanout histogram
system.membus.snoop_fanout::0                   15964    100.00%    100.00% # Request fanout histogram
system.membus.snoop_fanout::1                       0      0.00%    100.00% # Request fanout histogram
system.membus.snoop_fanout::overflows               0      0.00%    100.00% # Request fanout histogram
system.membus.snoop_fanout::min_value               0                       # Request fanout histogram
system.membus.snoop_fanout::max_value               0                       # Request fanout histogram
system.membus.snoop_fanout::total               15964                       # Request fanout histogram
system.membus.reqLayer0.occupancy            84090500                       # Layer occupancy (ticks)
system.membus.reqLayer0.utilization              10.8                       # Layer utilization (%)
system.membus.respLayer1.occupancy           83541000                       # Layer occupancy (ticks)
system.membus.respLayer1.utilization             10.8                       # Layer utilization (%)
system.membus.power_state.pwrStateResidencyTicks::UNDEFINED    776433500                       # Cumulative time (in ticks) in various power states
system.tol2bus.trans_dist::ReadResp              1563                       # Transaction distribution
system.tol2bus.trans_dist::WritebackDirty        28067                       # Transaction distribution
system.tol2bus.trans_dist::WritebackClean         1174                       # Transaction distribution
system.tol2bus.trans_dist::CleanEvict              54                       # Transaction distribution
system.tol2bus.trans_dist::ReadExReq            15204                       # Transaction distribution
system.tol2bus.trans_dist::ReadExResp           15202                       # Transaction distribution
system.tol2bus.trans_dist::ReadCleanReq          1423                       # Transaction distribution
system.tol2bus.trans_dist::ReadSharedReq          140                       # Transaction distribution
system.tol2bus.trans_dist::InvalidateReq            7                       # Transaction distribution
system.tol2bus.trans_dist::InvalidateResp            7                       # Transaction distribution
system.tol2bus.pkt_count_system.cpu.icache.mem_side::system.l2.cpu_side         4020                       # Packet count per connected master and slave (bytes)
system.tol2bus.pkt_count_system.cpu.dcache.mem_side::system.l2.cpu_side        45734                       # Packet count per connected master and slave (bytes)
system.tol2bus.pkt_count::total                 49754                       # Packet count per connected master and slave (bytes)
system.tol2bus.pkt_size_system.cpu.icache.mem_side::system.l2.cpu_side       166208                       # Cumulative packet size per connected master and slave (bytes)
system.tol2bus.pkt_size_system.cpu.dcache.mem_side::system.l2.cpu_side      1943552                       # Cumulative packet size per connected master and slave (bytes)
system.tol2bus.pkt_size::total                2109760                       # Cumulative packet size per connected master and slave (bytes)
system.tol2bus.snoops                           13087                       # Total snoops (count)
system.tol2bus.snoopTraffic                    834624                       # Total snoop traffic (bytes)
system.tol2bus.snoop_fanout::samples            29861                       # Request fanout histogram
system.tol2bus.snoop_fanout::mean            0.000569                       # Request fanout histogram
system.tol2bus.snoop_fanout::stdev           0.023854                       # Request fanout histogram
system.tol2bus.snoop_fanout::underflows             0      0.00%      0.00% # Request fanout histogram
system.tol2bus.snoop_fanout::0                  29844     99.94%     99.94% # Request fanout histogram
system.tol2bus.snoop_fanout::1                     17      0.06%    100.00% # Request fanout histogram
system.tol2bus.snoop_fanout::2                      0      0.00%    100.00% # Request fanout histogram
system.tol2bus.snoop_fanout::overflows              0      0.00%    100.00% # Request fanout histogram
system.tol2bus.snoop_fanout::min_value              0                       # Request fanout histogram
system.tol2bus.snoop_fanout::max_value              1                       # Request fanout histogram
system.tol2bus.snoop_fanout::total              29861                       # Request fanout histogram
system.tol2bus.reqLayer0.occupancy           32849909                       # Layer occupancy (ticks)
system.tol2bus.reqLayer0.utilization              4.2                       # Layer utilization (%)
system.tol2bus.respLayer1.occupancy          23016999                       # Layer occupancy (ticks)
system.tol2bus.respLayer1.utilization             3.0                       # Layer utilization (%)
system.tol2bus.respLayer0.occupancy           2134500                       # Layer occupancy (ticks)
system.tol2bus.respLayer0.utilization             0.3                       # Layer utilization (%)
system.tol2bus.power_state.pwrStateResidencyTicks::UNDEFINED    776433500                       # Cumulative time (in ticks) in various power states
system.voltage_domain.voltage                       1                       # Voltage in Volts
system.clk_domain.clock                          1000                       # Clock period in ticks
system.l2.demand_hits::.cpu.inst                  356                       # number of demand (read+write) hits
system.l2.demand_hits::.cpu.data                    1                       # number of demand (read+write) hits
system.l2.demand_hits::.cpu.icache.prefetcher          453                       # number of demand (read+write) hits
system.l2.demand_hits::total                      810                       # number of demand (read+write) hits
system.l2.overall_hits::.cpu.inst                 356                       # number of overall hits
system.l2.overall_hits::.cpu.data                   1                       # number of overall hits
system.l2.overall_hits::.cpu.icache.prefetcher          453                       # number of overall hits
system.l2.overall_hits::total                     810                       # number of overall hits
system.l2.demand_misses::.cpu.inst                614                       # number of demand (read+write) misses
system.l2.demand_misses::.cpu.data              15343                       # number of demand (read+write) misses
system.l2.demand_misses::total                  15957                       # number of demand (read+write) misses
system.l2.overall_misses::.cpu.inst               614                       # number of overall misses
system.l2.overall_misses::.cpu.data             15343                       # number of overall misses
system.l2.overall_misses::total                 15957                       # number of overall misses
system.l2.demand_miss_latency::.cpu.inst     47639500                       # number of demand (read+write) miss cycles
system.l2.demand_miss_latency::.cpu.data   1339960000                       # number of demand (read+write) miss cycles
system.l2.demand_miss_latency::total       1387599500                       # number of demand (read+write) miss cycles
system.l2.overall_miss_latency::.cpu.inst     47639500                       # number of overall miss cycles
system.l2.overall_miss_latency::.cpu.data   1339960000                       # number of overall miss cycles
system.l2.overall_miss_latency::total      1387599500                       # number of overall miss cycles
system.l2.demand_accesses::.cpu.inst              970                       # number of demand (read+write) accesses
system.l2.demand_accesses::.cpu.data            15344                       # number of demand (read+write) accesses
system.l2.demand_accesses::.cpu.icache.prefetcher          453                       # number of demand (read+write) accesses
system.l2.demand_accesses::total                16767                       # number of demand (read+write) accesses
system.l2.overall_accesses::.cpu.inst             970                       # number of overall (read+write) accesses
system.l2.overall_accesses::.cpu.data           15344                       # number of overall (read+write) accesses
system.l2.overall_accesses::.cpu.icache.prefetcher          453                       # number of overall (read+write) accesses
system.l2.overall_accesses::total               16767                       # number of overall (read+write) accesses
system.l2.demand_miss_rate::.cpu.inst        0.632990                       # miss rate for demand accesses
system.l2.demand_miss_rate::.cpu.data        0.999935                       # miss rate for demand accesses
system.l2.demand_miss_rate::total            0.951691                       # miss rate for demand accesses
system.l2.overall_miss_rate::.cpu.inst       0.632990                       # miss rate for overall accesses
system.l2.overall_miss_rate::.cpu.data       0.999935                       # miss rate for overall accesses
system.l2.overall_miss_rate::total           0.951691                       # miss rate for overall accesses
system.l2.demand_avg_miss_latency::.cpu.inst 77588.762215                       # average overall miss latency
system.l2.demand_avg_miss_latency::.cpu.data 87333.637489                       # average overall miss latency
system.l2.demand_avg_miss_latency::total 86958.670176                       # average overall miss latency
system.l2.overall_avg_miss_latency::.cpu.inst 77588.762215                       # average overall miss latency
system.l2.overall_avg_miss_latency::.cpu.data 87333.637489                       # average overall miss latency
system.l2.overall_avg_miss_latency::total 86958.670176                       # average overall miss latency
system.l2.blocked_cycles::no_mshrs                  0                       # number of cycles access was blocked
system.l2.blocked_cycles::no_targets                0                       # number of cycles access was blocked
system.l2.blocked::no_mshrs                         0                       # number of cycles access was blocked
system.l2.blocked::no_targets                       0                       # number of cycles access was blocked
system.l2.avg_blocked_cycles::no_mshrs            nan                       # average number of cycles each access was blocked
system.l2.avg_blocked_cycles::no_targets          nan                       # average number of cycles each access was blocked
system.l2.writebacks::.writebacks               13041                       # number of writebacks
system.l2.writebacks::total                     13041                       # number of writebacks
system.l2.demand_mshr_misses::.cpu.inst           614                       # number of demand (read+write) MSHR misses
system.l2.demand_mshr_misses::.cpu.data         15343                       # number of demand (read+write) MSHR misses
system.l2.demand_mshr_misses::total             15957                       # number of demand (read+write) MSHR misses
system.l2.overall_mshr_misses::.cpu.inst          614                       # number of overall MSHR misses
system.l2.overall_mshr_misses::.cpu.data        15343                       # number of overall MSHR misses
system.l2.overall_mshr_misses::total            15957                       # number of overall MSHR misses
system.l2.demand_mshr_miss_latency::.cpu.inst     41499500                       # number of demand (read+write) MSHR miss cycles
system.l2.demand_mshr_miss_latency::.cpu.data   1186550000                       # number of demand (read+write) MSHR miss cycles
system.l2.demand_mshr_miss_latency::total   1228049500                       # number of demand (read+write) MSHR miss cycles
system.l2.overall_mshr_miss_latency::.cpu.inst     41499500                       # number of overall MSHR miss cycles
system.l2.overall_mshr_miss_latency::.cpu.data   1186550000                       # number of overall MSHR miss cycles
system.l2.overall_mshr_miss_latency::total   1228049500                       # number of overall MSHR miss cycles
system.l2.demand_mshr_miss_rate::.cpu.inst     0.632990                       # mshr miss rate for demand accesses
system.l2.demand_mshr_miss_rate::.cpu.data     0.999935                       # mshr miss rate for demand accesses
system.l2.demand_mshr_miss_rate::total       0.951691                       # mshr miss rate for demand accesses
system.l2.overall_mshr_miss_rate::.cpu.inst     0.632990                       # mshr miss rate for overall accesses
system.l2.overall_mshr_miss_rate::.cpu.data     0.999935                       # mshr miss rate for overall accesses
system.l2.overall_mshr_miss_rate::total      0.951691                       # mshr miss rate for overall accesses
system.l2.demand_avg_mshr_miss_latency::.cpu.inst 67588.762215                       # average overall mshr miss latency
system.l2.demand_avg_mshr_miss_latency::.cpu.data 77334.941015                       # average overall mshr miss latency
system.l2.demand_avg_mshr_miss_latency::total 76959.923545                       # average overall mshr miss latency
system.l2.overall_avg_mshr_miss_latency::.cpu.inst 67588.762215                       # average overall mshr miss latency
system.l2.overall_avg_mshr_miss_latency::.cpu.data 77334.941015                       # average overall mshr miss latency
system.l2.overall_avg_mshr_miss_latency::total 76959.923545                       # average overall mshr miss latency
system.l2.replacements                          13087                       # number of replacements
system.l2.WritebackDirty_hits::.writebacks        15026                       # number of WritebackDirty hits
system.l2.WritebackDirty_hits::total            15026                       # number of WritebackDirty hits
system.l2.WritebackDirty_accesses::.writebacks        15026                       # number of WritebackDirty accesses(hits+misses)
system.l2.WritebackDirty_accesses::total        15026                       # number of WritebackDirty accesses(hits+misses)
system.l2.WritebackClean_hits::.writebacks         1173                       # number of WritebackClean hits
system.l2.WritebackClean_hits::total             1173                       # number of WritebackClean hits
system.l2.WritebackClean_accesses::.writebacks         1173                       # number of WritebackClean accesses(hits+misses)
system.l2.WritebackClean_accesses::total         1173                       # number of WritebackClean accesses(hits+misses)
system.l2.ReadExReq_hits::.cpu.data                 1                       # number of ReadExReq hits
system.l2.ReadExReq_hits::total                     1                       # number of ReadExReq hits
system.l2.ReadExReq_misses::.cpu.data           15203                       # number of ReadExReq misses
system.l2.ReadExReq_misses::total               15203                       # number of ReadExReq misses
system.l2.ReadExReq_miss_latency::.cpu.data   1328255500                       # number of ReadExReq miss cycles
system.l2.ReadExReq_miss_latency::total    1328255500                       # number of ReadExReq miss cycles
system.l2.ReadExReq_accesses::.cpu.data         15204                       # number of ReadExReq accesses(hits+misses)
system.l2.ReadExReq_accesses::total             15204                       # number of ReadExReq accesses(hits+misses)
system.l2.ReadExReq_miss_rate::.cpu.data     0.999934                       # miss rate for ReadExReq accesses
system.l2.ReadExReq_miss_rate::total         0.999934                       # miss rate for ReadExReq accesses
system.l2.ReadExReq_avg_miss_latency::.cpu.data 87367.986582                       # average ReadExReq miss latency
system.l2.ReadExReq_avg_miss_latency::total 87367.986582                       # average ReadExReq miss latency
system.l2.ReadExReq_mshr_misses::.cpu.data        15203                       # number of ReadExReq MSHR misses
system.l2.ReadExReq_mshr_misses::total          15203                       # number of ReadExReq MSHR misses
system.l2.ReadExReq_mshr_miss_latency::.cpu.data   1176245500                       # number of ReadExReq MSHR miss cycles
system.l2.ReadExReq_mshr_miss_latency::total   1176245500                       # number of ReadExReq MSHR miss cycles
system.l2.ReadExReq_mshr_miss_rate::.cpu.data     0.999934                       # mshr miss rate for ReadExReq accesses
system.l2.ReadExReq_mshr_miss_rate::total     0.999934                       # mshr miss rate for ReadExReq accesses
system.l2.ReadExReq_avg_mshr_miss_latency::.cpu.data 77369.302111                       # average ReadExReq mshr miss latency
system.l2.ReadExReq_avg_mshr_miss_latency::total 77369.302111                       # average ReadExReq mshr miss latency
system.l2.ReadCleanReq_hits::.cpu.inst            356                       # number of ReadCleanReq hits
system.l2.ReadCleanReq_hits::.cpu.icache.prefetcher          453                       # number of ReadCleanReq hits
system.l2.ReadCleanReq_hits::total                809                       # number of ReadCleanReq hits
system.l2.ReadCleanReq_misses::.cpu.inst          614                       # number of ReadCleanReq misses
system.l2.ReadCleanReq_misses::total              614                       # number of ReadCleanReq misses
system.l2.ReadCleanReq_miss_latency::.cpu.inst     47639500                       # number of ReadCleanReq miss cycles
system.l2.ReadCleanReq_miss_latency::total     47639500                       # number of ReadCleanReq miss cycles
system.l2.ReadCleanReq_accesses::.cpu.inst          970                       # number of ReadCleanReq accesses(hits+misses)
[...]
system.cpu.dcache.overall_misses::total        128975                       # number of overall misses
system.cpu.dcache.demand_miss_latency::.cpu.data   9876920596                       # number of demand (read+write) miss cycles
system.cpu.dcache.demand_miss_latency::total   9876920596                       # number of demand (read+write) miss cycles
system.cpu.dcache.overall_miss_latency::.cpu.data   9876920596                       # number of overall miss cycles
system.cpu.dcache.overall_miss_latency::total   9876920596                       # number of overall miss cycles
system.cpu.dcache.demand_accesses::.cpu.data       407892                       # number of demand (read+write) accesses
system.cpu.dcache.demand_accesses::total       407892                       # number of demand (read+write) accesses
system.cpu.dcache.overall_accesses::.cpu.data       407948                       # number of overall (read+write) accesses
system.cpu.dcache.overall_accesses::total       407948                       # number of overall (read+write) accesses
system.cpu.dcache.demand_miss_rate::.cpu.data     0.316189                       # miss rate for demand accesses
system.cpu.dcache.demand_miss_rate::total     0.316189                       # miss rate for demand accesses
system.cpu.dcache.overall_miss_rate::.cpu.data     0.316155                       # miss rate for overall accesses
system.cpu.dcache.overall_miss_rate::total     0.316155                       # miss rate for overall accesses
system.cpu.dcache.demand_avg_miss_latency::.cpu.data 76582.492157                       # average overall miss latency
system.cpu.dcache.demand_avg_miss_latency::total 76582.492157                       # average overall miss latency
system.cpu.dcache.overall_avg_miss_latency::.cpu.data 76580.117046                       # average overall miss latency
system.cpu.dcache.overall_avg_miss_latency::total 76580.117046                       # average overall miss latency
system.cpu.dcache.blocked_cycles::no_mshrs       123363                       # number of cycles access was blocked
system.cpu.dcache.blocked_cycles::no_targets            0                       # number of cycles access was blocked
system.cpu.dcache.blocked::no_mshrs              3430                       # number of cycles access was blocked
system.cpu.dcache.blocked::no_targets               0                       # number of cycles access was blocked
system.cpu.dcache.avg_blocked_cycles::no_mshrs    35.965889                       # average number of cycles each access was blocked
system.cpu.dcache.avg_blocked_cycles::no_targets          nan                       # average number of cycles each access was blocked
system.cpu.dcache.writebacks::.writebacks        15026                       # number of writebacks
system.cpu.dcache.writebacks::total             15026                       # number of writebacks
system.cpu.dcache.demand_mshr_hits::.cpu.data       113624                       # number of demand (read+write) MSHR hits
system.cpu.dcache.demand_mshr_hits::total       113624                       # number of demand (read+write) MSHR hits
system.cpu.dcache.overall_mshr_hits::.cpu.data       113624                       # number of overall MSHR hits
system.cpu.dcache.overall_mshr_hits::total       113624                       # number of overall MSHR hits
system.cpu.dcache.demand_mshr_misses::.cpu.data        15347                       # number of demand (read+write) MSHR misses
system.cpu.dcache.demand_mshr_misses::total        15347                       # number of demand (read+write) MSHR misses
system.cpu.dcache.overall_mshr_misses::.cpu.data        15350                       # number of overall MSHR misses
system.cpu.dcache.overall_mshr_misses::total        15350                       # number of overall MSHR misses
system.cpu.dcache.demand_mshr_miss_latency::.cpu.data   1362885496                       # number of demand (read+write) MSHR miss cycles
system.cpu.dcache.demand_mshr_miss_latency::total   1362885496                       # number of demand (read+write) MSHR miss cycles
system.cpu.dcache.overall_mshr_miss_latency::.cpu.data   1363120496                       # number of overall MSHR miss cycles
system.cpu.dcache.overall_mshr_miss_latency::total   1363120496                       # number of overall MSHR miss cycles
system.cpu.dcache.demand_mshr_miss_rate::.cpu.data     0.037625                       # mshr miss rate for demand accesses
system.cpu.dcache.demand_mshr_miss_rate::total     0.037625                       # mshr miss rate for demand accesses
system.cpu.dcache.overall_mshr_miss_rate::.cpu.data     0.037627                       # mshr miss rate for overall accesses
system.cpu.dcache.overall_mshr_miss_rate::total     0.037627                       # mshr miss rate for overall accesses
system.cpu.dcache.demand_avg_mshr_miss_latency::.cpu.data 88804.684694                       # average overall mshr miss latency
system.cpu.dcache.demand_avg_mshr_miss_latency::total 88804.684694                       # average overall mshr miss latency
system.cpu.dcache.overall_avg_mshr_miss_latency::.cpu.data 88802.638176                       # average overall mshr miss latency
system.cpu.dcache.overall_avg_mshr_miss_latency::total 88802.638176                       # average overall mshr miss latency
system.cpu.dcache.replacements                  15034                       # number of replacements
system.cpu.dcache.ReadReq_hits::.cpu.data       273777                       # number of ReadReq hits
system.cpu.dcache.ReadReq_hits::total          273777                       # number of ReadReq hits
system.cpu.dcache.ReadReq_misses::.cpu.data          295                       # number of ReadReq misses
system.cpu.dcache.ReadReq_misses::total           295                       # number of ReadReq misses
system.cpu.dcache.ReadReq_miss_latency::.cpu.data     22762000                       # number of ReadReq miss cycles
system.cpu.dcache.ReadReq_miss_latency::total     22762000                       # number of ReadReq miss cycles
system.cpu.dcache.ReadReq_accesses::.cpu.data       274072                       # number of ReadReq accesses(hits+misses)
system.cpu.dcache.ReadReq_accesses::total       274072                       # number of ReadReq accesses(hits+misses)
system.cpu.dcache.ReadReq_miss_rate::.cpu.data     0.001076                       # miss rate for ReadReq accesses
system.cpu.dcache.ReadReq_miss_rate::total     0.001076                       # miss rate for ReadReq accesses
system.cpu.dcache.ReadReq_avg_miss_latency::.cpu.data 77159.322034                       # average ReadReq miss latency
system.cpu.dcache.ReadReq_avg_miss_latency::total 77159.322034                       # average ReadReq miss latency
system.cpu.dcache.ReadReq_mshr_hits::.cpu.data          159                       # number of ReadReq MSHR hits
system.cpu.dcache.ReadReq_mshr_hits::total          159                       # number of ReadReq MSHR hits
system.cpu.dcache.ReadReq_mshr_misses::.cpu.data          136                       # number of ReadReq MSHR misses
system.cpu.dcache.ReadReq_mshr_misses::total          136                       # number of ReadReq MSHR misses
system.cpu.dcache.ReadReq_mshr_miss_latency::.cpu.data     11596500                       # number of ReadReq MSHR miss cycles
system.cpu.dcache.ReadReq_mshr_miss_latency::total     11596500                       # number of ReadReq MSHR miss cycles
system.cpu.dcache.ReadReq_mshr_miss_rate::.cpu.data     0.000496                       # mshr miss rate for ReadReq accesses
system.cpu.dcache.ReadReq_mshr_miss_rate::total     0.000496                       # mshr miss rate for ReadReq accesses
system.cpu.dcache.ReadReq_avg_mshr_miss_latency::.cpu.data 85268.382353                       # average ReadReq mshr miss latency
system.cpu.dcache.ReadReq_avg_mshr_miss_latency::total 85268.382353                       # average ReadReq mshr miss latency
system.cpu.dcache.WriteReq_hits::.cpu.data         5144                       # number of WriteReq hits
system.cpu.dcache.WriteReq_hits::total           5144                       # number of WriteReq hits
system.cpu.dcache.WriteReq_misses::.cpu.data       128669                       # number of WriteReq misses
system.cpu.dcache.WriteReq_misses::total       128669                       # number of WriteReq misses
system.cpu.dcache.WriteReq_miss_latency::.cpu.data   9853936098                       # number of WriteReq miss cycles
system.cpu.dcache.WriteReq_miss_latency::total   9853936098                       # number of WriteReq miss cycles
system.cpu.dcache.WriteReq_accesses::.cpu.data       133813                       # number of WriteReq accesses(hits+misses)
system.cpu.dcache.WriteReq_accesses::total       133813                       # number of WriteReq accesses(hits+misses)
system.cpu.dcache.WriteReq_miss_rate::.cpu.data     0.961558                       # miss rate for WriteReq accesses
system.cpu.dcache.WriteReq_miss_rate::total     0.961558                       # miss rate for WriteReq accesses
system.cpu.dcache.WriteReq_avg_miss_latency::.cpu.data 76583.606758                       # average WriteReq miss latency
system.cpu.dcache.WriteReq_avg_miss_latency::total 76583.606758                       # average WriteReq miss latency
system.cpu.dcache.WriteReq_mshr_hits::.cpu.data       113465                       # number of WriteReq MSHR hits
system.cpu.dcache.WriteReq_mshr_hits::total       113465                       # number of WriteReq MSHR hits
system.cpu.dcache.WriteReq_mshr_misses::.cpu.data        15204                       # number of WriteReq MSHR misses
system.cpu.dcache.WriteReq_mshr_misses::total        15204                       # number of WriteReq MSHR misses
system.cpu.dcache.WriteReq_mshr_miss_latency::.cpu.data   1351073498                       # number of WriteReq MSHR miss cycles
system.cpu.dcache.WriteReq_mshr_miss_latency::total   1351073498                       # number of WriteReq MSHR miss cycles
system.cpu.dcache.WriteReq_mshr_miss_rate::.cpu.data     0.113621                       # mshr miss rate for WriteReq accesses
system.cpu.dcache.WriteReq_mshr_miss_rate::total     0.113621                       # mshr miss rate for WriteReq accesses
system.cpu.dcache.WriteReq_avg_mshr_miss_latency::.cpu.data 88863.029334                       # average WriteReq mshr miss latency
system.cpu.dcache.WriteReq_avg_mshr_miss_latency::total 88863.029334                       # average WriteReq mshr miss latency
system.cpu.dcache.SoftPFReq_hits::.cpu.data           52                       # number of SoftPFReq hits
system.cpu.dcache.SoftPFReq_hits::total            52                       # number of SoftPFReq hits
system.cpu.dcache.SoftPFReq_misses::.cpu.data            4                       # number of SoftPFReq misses
system.cpu.dcache.SoftPFReq_misses::total            4                       # number of SoftPFReq misses
system.cpu.dcache.SoftPFReq_accesses::.cpu.data           56                       # number of SoftPFReq accesses(hits+misses)
system.cpu.dcache.SoftPFReq_accesses::total           56                       # number of SoftPFReq accesses(hits+misses)
system.cpu.dcache.SoftPFReq_miss_rate::.cpu.data     0.071429                       # miss rate for SoftPFReq accesses
system.cpu.dcache.SoftPFReq_miss_rate::total     0.071429                       # miss rate for SoftPFReq accesses
system.cpu.dcache.SoftPFReq_mshr_misses::.cpu.data            3                       # number of SoftPFReq MSHR misses
system.cpu.dcache.SoftPFReq_mshr_misses::total            3                       # number of SoftPFReq MSHR misses
system.cpu.dcache.SoftPFReq_mshr_miss_latency::.cpu.data       235000                       # number of SoftPFReq MSHR miss cycles
system.cpu.dcache.SoftPFReq_mshr_miss_latency::total       235000                       # number of SoftPFReq MSHR miss cycles
system.cpu.dcache.SoftPFReq_mshr_miss_rate::.cpu.data     0.053571                       # mshr miss rate for SoftPFReq accesses
system.cpu.dcache.SoftPFReq_mshr_miss_rate::total     0.053571                       # mshr miss rate for SoftPFReq accesses
system.cpu.dcache.SoftPFReq_avg_mshr_miss_latency::.cpu.data 78333.333333                       # average SoftPFReq mshr miss latency
system.cpu.dcache.SoftPFReq_avg_mshr_miss_latency::total 78333.333333                       # average SoftPFReq mshr miss latency
system.cpu.dcache.WriteLineReq_misses::.cpu.data            7                       # number of WriteLineReq misses
system.cpu.dcache.WriteLineReq_misses::total            7                       # number of WriteLineReq misses
system.cpu.dcache.WriteLineReq_miss_latency::.cpu.data       222498                       # number of WriteLineReq miss cycles
system.cpu.dcache.WriteLineReq_miss_latency::total       222498                       # number of WriteLineReq miss cycles
system.cpu.dcache.WriteLineReq_accesses::.cpu.data            7                       # number of WriteLineReq accesses(hits+misses)
system.cpu.dcache.WriteLineReq_accesses::total            7                       # number of WriteLineReq accesses(hits+misses)
system.cpu.dcache.WriteLineReq_miss_rate::.cpu.data            1                       # miss rate for WriteLineReq accesses
system.cpu.dcache.WriteLineReq_miss_rate::total            1                       # miss rate for WriteLineReq accesses
system.cpu.dcache.WriteLineReq_avg_miss_latency::.cpu.data 31785.428571                       # average WriteLineReq miss latency
system.cpu.dcache.WriteLineReq_avg_miss_latency::total 31785.428571                       # average WriteLineReq miss latency
system.cpu.dcache.WriteLineReq_mshr_misses::.cpu.data            7                       # number of WriteLineReq MSHR misses
system.cpu.dcache.WriteLineReq_mshr_misses::total            7                       # number of WriteLineReq MSHR misses
system.cpu.dcache.WriteLineReq_mshr_miss_latency::.cpu.data       215498                       # number of WriteLineReq MSHR miss cycles
system.cpu.dcache.WriteLineReq_mshr_miss_latency::total       215498                       # number of WriteLineReq MSHR miss cycles
system.cpu.dcache.WriteLineReq_mshr_miss_rate::.cpu.data            1                       # mshr miss rate for WriteLineReq accesses
system.cpu.dcache.WriteLineReq_mshr_miss_rate::total            1                       # mshr miss rate for WriteLineReq accesses
system.cpu.dcache.WriteLineReq_avg_mshr_miss_latency::.cpu.data 30785.428571                       # average WriteLineReq mshr miss latency
system.cpu.dcache.WriteLineReq_avg_mshr_miss_latency::total 30785.428571                       # average WriteLineReq mshr miss latency
system.cpu.dcache.LoadLockedReq_hits::.cpu.data          168                       # number of LoadLockedReq hits
system.cpu.dcache.LoadLockedReq_hits::total          168                       # number of LoadLockedReq hits
system.cpu.dcache.LoadLockedReq_misses::.cpu.data            1                       # number of LoadLockedReq misses
system.cpu.dcache.LoadLockedReq_misses::total            1                       # number of LoadLockedReq misses
system.cpu.dcache.LoadLockedReq_miss_latency::.cpu.data        88500                       # number of LoadLockedReq miss cycles
system.cpu.dcache.LoadLockedReq_miss_latency::total        88500                       # number of LoadLockedReq miss cycles
system.cpu.dcache.LoadLockedReq_accesses::.cpu.data          169                       # number of LoadLockedReq accesses(hits+misses)
system.cpu.dcache.LoadLockedReq_accesses::total          169                       # number of LoadLockedReq accesses(hits+misses)
system.cpu.dcache.LoadLockedReq_miss_rate::.cpu.data     0.005917                       # miss rate for LoadLockedReq accesses
system.cpu.dcache.LoadLockedReq_miss_rate::total     0.005917                       # miss rate for LoadLockedReq accesses
system.cpu.dcache.LoadLockedReq_avg_miss_latency::.cpu.data        88500                       # average LoadLockedReq miss latency
system.cpu.dcache.LoadLockedReq_avg_miss_latency::total        88500                       # average LoadLockedReq miss latency
system.cpu.dcache.LoadLockedReq_mshr_misses::.cpu.data            1                       # number of LoadLockedReq MSHR misses
system.cpu.dcache.LoadLockedReq_mshr_misses::total            1                       # number of LoadLockedReq MSHR misses
system.cpu.dcache.LoadLockedReq_mshr_miss_latency::.cpu.data        87500                       # number of LoadLockedReq MSHR miss cycles
system.cpu.dcache.LoadLockedReq_mshr_miss_latency::total        87500                       # number of LoadLockedReq MSHR miss cycles
system.cpu.dcache.LoadLockedReq_mshr_miss_rate::.cpu.data     0.005917                       # mshr miss rate for LoadLockedReq accesses
system.cpu.dcache.LoadLockedReq_mshr_miss_rate::total     0.005917                       # mshr miss rate for LoadLockedReq accesses
system.cpu.dcache.LoadLockedReq_avg_mshr_miss_latency::.cpu.data        87500                       # average LoadLockedReq mshr miss latency
system.cpu.dcache.LoadLockedReq_avg_mshr_miss_latency::total        87500                       # average LoadLockedReq mshr miss latency
system.cpu.dcache.StoreCondReq_hits::.cpu.data          142                       # number of StoreCondReq hits
system.cpu.dcache.StoreCondReq_hits::total          142                       # number of StoreCondReq hits
system.cpu.dcache.StoreCondReq_accesses::.cpu.data          142                       # number of StoreCondReq accesses(hits+misses)
system.cpu.dcache.StoreCondReq_accesses::total          142                       # number of StoreCondReq accesses(hits+misses)
system.cpu.dcache.power_state.pwrStateResidencyTicks::UNDEFINED    776433500                       # Cumulative time (in ticks) in various power states
system.cpu.dcache.tags.tagsinuse           306.507821                       # Cycle average of tags in use
system.cpu.dcache.tags.total_refs              294632                       # Total number of references to valid blocks.
system.cpu.dcache.tags.sampled_refs             15349                       # Sample count of references to valid blocks.
system.cpu.dcache.tags.avg_refs             19.195518                       # Average number of references to valid blocks.
system.cpu.dcache.tags.warmup_cycle            249500                       # Cycle when the warmup percentage was hit.
system.cpu.dcache.tags.occ_blocks::.cpu.data   306.507821                       # Average occupied blocks per requestor
system.cpu.dcache.tags.occ_percent::.cpu.data     0.299324                       # Average percentage of cache occupancy
system.cpu.dcache.tags.occ_percent::total     0.299324                       # Average percentage of cache occupancy
system.cpu.dcache.tags.occ_task_id_blocks::1024          315                       # Occupied blocks per task id
system.cpu.dcache.tags.age_task_id_blocks_1024::0           64                       # Occupied blocks per task id
system.cpu.dcache.tags.age_task_id_blocks_1024::2          251                       # Occupied blocks per task id
system.cpu.dcache.tags.occ_task_id_percent::1024     0.307617                       # Percentage of cache occupancy per task id
system.cpu.dcache.tags.tag_accesses            831867                       # Number of tag accesses
system.cpu.dcache.tags.data_accesses           831867                       # Number of data accesses
system.cpu.dcache.tags.power_state.pwrStateResidencyTicks::UNDEFINED    776433500                       # Cumulative time (in ticks) in various power states
system.cpu.power_state.pwrStateResidencyTicks::ON    776433500                       # Cumulative time (in ticks) in various power states

---------- End Simulation Statistics   ----------
