
---------- Begin Simulation Statistics ----------
final_tick                                 2964706000                       # Number of ticks from beginning of simulation (restored from checkpoints and never reset)
host_inst_rate                                 122936                       # Simulator instruction rate (inst/s)
host_mem_usage                                 882420                       # Number of bytes of host memory used
host_op_rate                                   137317                       # Simulator op (including micro ops) rate (op/s)
host_seconds                                    66.30                       # Real time elapsed on the host
host_tick_rate                               44719446                       # Simulator tick rate (ticks/s)
sim_freq                                 1000000000000                       # Frequency of simulated ticks
sim_insts                                     8150103                       # Number of instructions simulated
sim_ops                                       9103510                       # Number of ops (including micro ops) simulated
sim_seconds                                  0.002965                       # Number of seconds simulated
sim_ticks                                  2964706000                       # Number of ticks simulated
system.cpu.branchPred.BTBCorrect                    0                       # Number of correct BTB predictions (this stat may not work properly.
system.cpu.branchPred.BTBHitPct             97.335933                       # BTB Hit Percentage
system.cpu.branchPred.BTBHits                  926093                       # Number of BTB hits
system.cpu.branchPred.BTBLookups               951440                       # Number of BTB lookups
system.cpu.branchPred.RASInCorrect                  9                       # Number of incorrect RAS predictions.
system.cpu.branchPred.condIncorrect             68343                       # Number of conditional branches incorrect
system.cpu.branchPred.condPredicted           1671947                       # Number of conditional branches predicted
system.cpu.branchPred.indirectHits              30237                       # Number of indirect target hits.
system.cpu.branchPred.indirectLookups           33761                       # Number of indirect predictor lookups.
system.cpu.branchPred.indirectMisses             3524                       # Number of indirect misses.
system.cpu.branchPred.lookups                 2233081                       # Number of BP lookups
system.cpu.branchPred.usedRAS                  215518                       # Number of times the RAS was used to get a target.
system.cpu.branchPredindirectMispredicted         5200                       # Number of mispredicted indirect branches.
system.cpu.cc_regfile_reads                   4415679                       # number of cc regfile reads
system.cpu.cc_regfile_writes                  4380822                       # number of cc regfile writes
system.cpu.commit.amos                              0                       # Number of atomic instructions committed
system.cpu.commit.branchMispredicts             63087                       # The number of times a branch was mispredicted
system.cpu.commit.branches                    1868928                       # Number of branches committed
system.cpu.commit.bw_lim_events                474712                       # number cycles where commit BW limit reached
system.cpu.commit.commitNonSpecStalls             116                       # The number of times commit has been forced to stall to communicate backwards
system.cpu.commit.commitSquashedInsts         1054456                       # The number of squashed insts skipped by commit
system.cpu.commit.committedInsts              8164178                       # Number of instructions committed
system.cpu.commit.committedOps                9117585                       # Number of ops (including micro ops) committed
system.cpu.commit.committed_per_cycle::samples      5374451                       # Number of insts commited each cycle
system.cpu.commit.committed_per_cycle::mean     1.696468                       # Number of insts commited each cycle
system.cpu.commit.committed_per_cycle::stdev     2.481852                       # Number of insts commited each cycle
system.cpu.commit.committed_per_cycle::underflows            0      0.00%      0.00% # Number of insts commited each cycle
system.cpu.commit.committed_per_cycle::0      2528825     47.05%     47.05% # Number of insts commited each cycle
system.cpu.commit.committed_per_cycle::1      1089637     20.27%     67.33% # Number of insts commited each cycle
system.cpu.commit.committed_per_cycle::2       595069     11.07%     78.40% # Number of insts commited each cycle
system.cpu.commit.committed_per_cycle::3       243424      4.53%     82.93% # Number of insts commited each cycle
system.cpu.commit.committed_per_cycle::4       133060      2.48%     85.40% # Number of insts commited each cycle
system.cpu.commit.committed_per_cycle::5       150211      2.79%     88.20% # Number of insts commited each cycle
system.cpu.commit.committed_per_cycle::6        90044      1.68%     89.87% # Number of insts commited each cycle
system.cpu.commit.committed_per_cycle::7        69469      1.29%     91.17% # Number of insts commited each cycle
system.cpu.commit.committed_per_cycle::8       474712      8.83%    100.00% # Number of insts commited each cycle
system.cpu.commit.committed_per_cycle::overflows            0      0.00%    100.00% # Number of insts commited each cycle
system.cpu.commit.committed_per_cycle::min_value            0                       # Number of insts commited each cycle
system.cpu.commit.committed_per_cycle::max_value            8                       # Number of insts commited each cycle
system.cpu.commit.committed_per_cycle::total      5374451                       # Number of insts commited each cycle
system.cpu.commit.fp_insts                          0                       # Number of committed floating point instructions.
system.cpu.commit.function_calls               194519                       # Number of function calls committed.
system.cpu.commit.int_insts                   8057694                       # Number of committed integer instructions.
system.cpu.commit.loads                       1397081                       # Number of loads committed
system.cpu.commit.membars                          92                       # Number of memory barriers committed
system.cpu.commit.op_class_0::No_OpClass           13      0.00%      0.00% # Class of committed instruction
system.cpu.commit.op_class_0::IntAlu          6838899     75.01%     75.01% # Class of committed instruction
system.cpu.commit.op_class_0::IntMult           25663      0.28%     75.29% # Class of committed instruction
system.cpu.commit.op_class_0::IntDiv             9435      0.10%     75.39% # Class of committed instruction
system.cpu.commit.op_class_0::FloatAdd              0      0.00%     75.39% # Class of committed instruction
system.cpu.commit.op_class_0::FloatCmp              0      0.00%     75.39% # Class of committed instruction
system.cpu.commit.op_class_0::FloatCvt              0      0.00%     75.39% # Class of committed instruction
system.cpu.commit.op_class_0::FloatMult             0      0.00%     75.39% # Class of committed instruction
system.cpu.commit.op_class_0::FloatMultAcc            0      0.00%     75.39% # Class of committed instruction
system.cpu.commit.op_class_0::FloatDiv              0      0.00%     75.39% # Class of committed instruction
system.cpu.commit.op_class_0::FloatMisc             0      0.00%     75.39% # Class of committed instruction
system.cpu.commit.op_class_0::FloatSqrt             0      0.00%     75.39% # Class of committed instruction
system.cpu.commit.op_class_0::SimdAdd              39      0.00%     75.39% # Class of committed instruction
system.cpu.commit.op_class_0::SimdAddAcc            0      0.00%     75.39% # Class of committed instruction
system.cpu.commit.op_class_0::SimdAlu              51      0.00%     75.39% # Class of committed instruction
system.cpu.commit.op_class_0::SimdCmp              52      0.00%     75.39% # Class of committed instruction
system.cpu.commit.op_class_0::SimdCvt               0      0.00%     75.39% # Class of committed instruction
system.cpu.commit.op_class_0::SimdMisc           3259      0.04%     75.43% # Class of committed instruction
system.cpu.commit.op_class_0::SimdMult              0      0.00%     75.43% # Class of committed instruction
system.cpu.commit.op_class_0::SimdMultAcc            0      0.00%     75.43% # Class of committed instruction
system.cpu.commit.op_class_0::SimdShift             0      0.00%     75.43% # Class of committed instruction
system.cpu.commit.op_class_0::SimdShiftAcc            0      0.00%     75.43% # Class of committed instruction
system.cpu.commit.op_class_0::SimdDiv               0      0.00%     75.43% # Class of committed instruction
system.cpu.commit.op_class_0::SimdSqrt              0      0.00%     75.43% # Class of committed instruction
system.cpu.commit.op_class_0::SimdFloatAdd            0      0.00%     75.43% # Class of committed instruction
system.cpu.commit.op_class_0::SimdFloatAlu            0      0.00%     75.43% # Class of committed instruction
system.cpu.commit.op_class_0::SimdFloatCmp            0      0.00%     75.43% # Class of committed instruction
system.cpu.commit.op_class_0::SimdFloatCvt            0      0.00%     75.43% # Class of committed instruction
system.cpu.commit.op_class_0::SimdFloatDiv            0      0.00%     75.43% # Class of committed instruction
system.cpu.commit.op_class_0::SimdFloatMisc            0      0.00%     75.43% # Class of committed instruction
system.cpu.commit.op_class_0::SimdFloatMult            0      0.00%     75.43% # Class of committed instruction
system.cpu.commit.op_class_0::SimdFloatMultAcc            0      0.00%     75.43% # Class of committed instruction
system.cpu.commit.op_class_0::SimdFloatSqrt            0      0.00%     75.43% # Class of committed instruction
system.cpu.commit.op_class_0::SimdReduceAdd            0      0.00%     75.43% # Class of committed instruction
system.cpu.commit.op_class_0::SimdReduceAlu            0      0.00%     75.43% # Class of committed instruction
system.cpu.commit.op_class_0::SimdReduceCmp            0      0.00%     75.43% # Class of committed instruction
system.cpu.commit.op_class_0::SimdFloatReduceAdd            0      0.00%     75.43% # Class of committed instruction
system.cpu.commit.op_class_0::SimdFloatReduceCmp            0      0.00%     75.43% # Class of committed instruction
system.cpu.commit.op_class_0::SimdAes               0      0.00%     75.43% # Class of committed instruction
system.cpu.commit.op_class_0::SimdAesMix            0      0.00%     75.43% # Class of committed instruction
system.cpu.commit.op_class_0::SimdSha1Hash            0      0.00%     75.43% # Class of committed instruction
system.cpu.commit.op_class_0::SimdSha1Hash2            0      0.00%     75.43% # Class of committed instruction
system.cpu.commit.op_class_0::SimdSha256Hash            0      0.00%     75.43% # Class of committed instruction
system.cpu.commit.op_class_0::SimdSha256Hash2            0      0.00%     75.43% # Class of committed instruction
system.cpu.commit.op_class_0::SimdShaSigma2            0      0.00%     75.43% # Class of committed instruction
system.cpu.commit.op_class_0::SimdShaSigma3            0      0.00%     75.43% # Class of committed instruction
system.cpu.commit.op_class_0::SimdPredAlu            0      0.00%     75.43% # Class of committed instruction
system.cpu.commit.op_class_0::MemRead         1397081     15.32%     90.75% # Class of committed instruction
system.cpu.commit.op_class_0::MemWrite         843093      9.25%    100.00% # Class of committed instruction
system.cpu.commit.op_class_0::FloatMemRead            0      0.00%    100.00% # Class of committed instruction
system.cpu.commit.op_class_0::FloatMemWrite            0      0.00%    100.00% # Class of committed instruction
system.cpu.commit.op_class_0::IprAccess             0      0.00%    100.00% # Class of committed instruction
system.cpu.commit.op_class_0::InstPrefetch            0      0.00%    100.00% # Class of committed instruction
system.cpu.commit.op_class_0::total           9117585                       # Class of committed instruction
system.cpu.commit.refs                        2240174                       # Number of memory references committed
system.cpu.commit.swp_count                         0                       # Number of s/w prefetches committed
system.cpu.commit.vec_insts                     84554                       # Number of committed Vector instructions.
system.cpu.committedInsts                     8150103                       # Number of Instructions Simulated
system.cpu.committedOps                       9103510                       # Number of Ops (including micro ops) Simulated
system.cpu.cpi                               0.727528                       # CPI: Cycles Per Instruction
system.cpu.cpi_total                         0.727528                       # CPI: Total CPI of All Threads
system.cpu.decode.BlockedCycles                757539                       # Number of cycles decode is blocked
system.cpu.decode.BranchMispred                  5301                       # Number of times decode detected a branch misprediction
system.cpu.decode.BranchResolved               914042                       # Number of times decode resolved a branch
system.cpu.decode.DecodedInsts               10647430                       # Number of instructions handled by decode
system.cpu.decode.IdleCycles                  2551958                       # Number of cycles decode is idle
system.cpu.decode.RunCycles                   2124663                       # Number of cycles decode is running
system.cpu.decode.SquashCycles                  63497                       # Number of cycles decode is squashing
system.cpu.decode.SquashedInsts                 19318                       # Number of squashed instructions handled by decode
system.cpu.decode.UnblockCycles                 42882                       # Number of cycles decode is unblocking
system.cpu.dtb.accesses                             0                       # DTB accesses
system.cpu.dtb.align_faults                         0                       # Number of TLB faults due to alignment restrictions
system.cpu.dtb.domain_faults                        0                       # Number of TLB faults due to domain restrictions
system.cpu.dtb.flush_entries                        0                       # Number of entries that have been flushed from TLB
system.cpu.dtb.flush_tlb                            0                       # Number of times complete TLB was flushed
system.cpu.dtb.flush_tlb_asid                       0                       # Number of times TLB was flushed by ASID
system.cpu.dtb.flush_tlb_mva                        0                       # Number of times TLB was flushed by MVA
system.cpu.dtb.flush_tlb_mva_asid                   0                       # Number of times TLB was flushed by MVA & ASID
system.cpu.dtb.hits                                 0                       # DTB hits
system.cpu.dtb.inst_accesses                        0                       # ITB inst accesses
system.cpu.dtb.inst_hits                            0                       # ITB inst hits
system.cpu.dtb.inst_misses                          0                       # ITB inst misses
system.cpu.dtb.misses                               0                       # DTB misses
system.cpu.dtb.perms_faults                         0                       # Number of TLB faults due to permissions restrictions
system.cpu.dtb.prefetch_faults                      0                       # Number of TLB faults due to prefetch
system.cpu.dtb.read_accesses                        0                       # DTB read accesses
system.cpu.dtb.read_hits                            0                       # DTB read hits
system.cpu.dtb.read_misses                          0                       # DTB read misses
system.cpu.dtb.stage2_mmu.stage2_tlb.accesses            0                       # DTB accesses
system.cpu.dtb.stage2_mmu.stage2_tlb.align_faults            0                       # Number of TLB faults due to alignment restrictions
system.cpu.dtb.stage2_mmu.stage2_tlb.domain_faults            0                       # Number of TLB faults due to domain restrictions
system.cpu.dtb.stage2_mmu.stage2_tlb.flush_entries            0                       # Number of entries that have been flushed from TLB
system.cpu.dtb.stage2_mmu.stage2_tlb.flush_tlb            0                       # Number of times complete TLB was flushed
system.cpu.dtb.stage2_mmu.stage2_tlb.flush_tlb_asid            0                       # Number of times TLB was flushed by ASID
system.cpu.dtb.stage2_mmu.stage2_tlb.flush_tlb_mva            0                       # Number of times TLB was flushed by MVA
system.cpu.dtb.stage2_mmu.stage2_tlb.flush_tlb_mva_asid            0                       # Number of times TLB was flushed by MVA & ASID
system.cpu.dtb.stage2_mmu.stage2_tlb.hits            0                       # DTB hits
system.cpu.dtb.stage2_mmu.stage2_tlb.inst_accesses            0                       # ITB inst accesses
system.cpu.dtb.stage2_mmu.stage2_tlb.inst_hits            0                       # ITB inst hits
system.cpu.dtb.stage2_mmu.stage2_tlb.inst_misses            0                       # ITB inst misses
system.cpu.dtb.stage2_mmu.stage2_tlb.misses            0                       # DTB misses
system.cpu.dtb.stage2_mmu.stage2_tlb.perms_faults            0                       # Number of TLB faults due to permissions restrictions
system.cpu.dtb.stage2_mmu.stage2_tlb.prefetch_faults            0                       # Number of TLB faults due to prefetch
system.cpu.dtb.stage2_mmu.stage2_tlb.read_accesses            0                       # DTB read accesses
system.cpu.dtb.stage2_mmu.stage2_tlb.read_hits            0                       # DTB read hits
system.cpu.dtb.stage2_mmu.stage2_tlb.read_misses            0                       # DTB read misses
system.cpu.dtb.stage2_mmu.stage2_tlb.walker.walkRequestOrigin_Requested::Data            0                       # Table walker requests started/completed, data/inst
system.cpu.dtb.stage2_mmu.stage2_tlb.walker.walkRequestOrigin_Requested::Inst            0                       # Table walker requests started/completed, data/inst
system.cpu.dtb.stage2_mmu.stage2_tlb.walker.walkRequestOrigin_Requested::total            0                       # Table walker requests started/completed, data/inst
system.cpu.dtb.stage2_mmu.stage2_tlb.walker.walkRequestOrigin_Completed::Data            0                       # Table walker requests started/completed, data/inst
system.cpu.dtb.stage2_mmu.stage2_tlb.walker.walkRequestOrigin_Completed::Inst            0                       # Table walker requests started/completed, data/inst
system.cpu.dtb.stage2_mmu.stage2_tlb.walker.walkRequestOrigin_Completed::total            0                       # Table walker requests started/completed, data/inst
system.cpu.dtb.stage2_mmu.stage2_tlb.walker.walkRequestOrigin::total            0                       # Table walker requests started/completed, data/inst
system.cpu.dtb.stage2_mmu.stage2_tlb.walker.walks            0                       # Table walker walks requested
system.cpu.dtb.stage2_mmu.stage2_tlb.write_accesses            0                       # DTB write accesses
system.cpu.dtb.stage2_mmu.stage2_tlb.write_hits            0                       # DTB write hits
system.cpu.dtb.stage2_mmu.stage2_tlb.write_misses            0                       # DTB write misses
system.cpu.dtb.walker.walkRequestOrigin_Requested::Data            0                       # Table walker requests started/completed, data/inst
system.cpu.dtb.walker.walkRequestOrigin_Requested::Inst            0                       # Table walker requests started/completed, data/inst
system.cpu.dtb.walker.walkRequestOrigin_Requested::total            0                       # Table walker requests started/completed, data/inst
system.cpu.dtb.walker.walkRequestOrigin_Completed::Data            0                       # Table walker requests started/completed, data/inst
system.cpu.dtb.walker.walkRequestOrigin_Completed::Inst            0                       # Table walker requests started/completed, data/inst
system.cpu.dtb.walker.walkRequestOrigin_Completed::total            0                       # Table walker requests started/completed, data/inst
system.cpu.dtb.walker.walkRequestOrigin::total            0                       # Table walker requests started/completed, data/inst
system.cpu.dtb.walker.walks                         0                       # Table walker walks requested
system.cpu.dtb.write_accesses                       0                       # DTB write accesses
system.cpu.dtb.write_hits                           0                       # DTB write hits
system.cpu.dtb.write_misses                         0                       # DTB write misses
system.cpu.fetch.Branches                     2233081                       # Number of branches that fetch encountered
system.cpu.fetch.CacheLines                   1706511                       # Number of cache lines fetched
system.cpu.fetch.Cycles                       2772812                       # Number of cycles fetch has run and was not squashing or blocked
system.cpu.fetch.IcacheSquashes                 34628                       # Number of outstanding Icache misses that were squashed
system.cpu.fetch.IcacheWaitRetryStallCycles          263                       # Number of stall cycles due to full MSHR
system.cpu.fetch.Insts                        9778780                       # Number of instructions fetch has processed
system.cpu.fetch.MiscStallCycles                   76                       # Number of cycles fetch has spent waiting on interrupts, or bad addresses, or out of MSHRs
system.cpu.fetch.SquashCycles                  137506                       # Number of cycles fetch has spent squashing
system.cpu.fetch.branchRate                  0.376610                       # Number of branch fetches per cycle
system.cpu.fetch.icacheStallCycles            2698635                       # Number of cycles fetch is stalled on an Icache miss
system.cpu.fetch.predictedBranches            1171848                       # Number of branches that fetch has predicted taken
system.cpu.fetch.rate                        1.649194                       # Number of inst fetches per cycle
system.cpu.fetch.rateDist::samples            5540539                       # Number of instructions fetched each cycle (Total)
system.cpu.fetch.rateDist::mean              1.961664                       # Number of instructions fetched each cycle (Total)
system.cpu.fetch.rateDist::stdev             2.840260                       # Number of instructions fetched each cycle (Total)
system.cpu.fetch.rateDist::underflows               0      0.00%      0.00% # Number of instructions fetched each cycle (Total)
system.cpu.fetch.rateDist::0                  3288651     59.36%     59.36% # Number of instructions fetched each cycle (Total)
system.cpu.fetch.rateDist::1                   233310      4.21%     63.57% # Number of instructions fetched each cycle (Total)
system.cpu.fetch.rateDist::2                   272336      4.92%     68.48% # Number of instructions fetched each cycle (Total)
system.cpu.fetch.rateDist::3                   278092      5.02%     73.50% # Number of instructions fetched each cycle (Total)
system.cpu.fetch.rateDist::4                   325232      5.87%     79.37% # Number of instructions fetched each cycle (Total)
system.cpu.fetch.rateDist::5                   181282      3.27%     82.64% # Number of instructions fetched each cycle (Total)
system.cpu.fetch.rateDist::6                   285404      5.15%     87.79% # Number of instructions fetched each cycle (Total)
system.cpu.fetch.rateDist::7                    73200      1.32%     89.12% # Number of instructions fetched each cycle (Total)
system.cpu.fetch.rateDist::8                   603032     10.88%    100.00% # Number of instructions fetched each cycle (Total)
system.cpu.fetch.rateDist::overflows                0      0.00%    100.00% # Number of instructions fetched each cycle (Total)
system.cpu.fetch.rateDist::min_value                0                       # Number of instructions fetched each cycle (Total)
system.cpu.fetch.rateDist::max_value                8                       # Number of instructions fetched each cycle (Total)
system.cpu.fetch.rateDist::total              5540539                       # Number of instructions fetched each cycle (Total)
system.cpu.icache.prefetcher.num_hwpf_issued       249536                       # number of hwpf issued
system.cpu.icache.prefetcher.pfBufferHit       330996                       # number of redundant prefetches already in prefetch queue
system.cpu.icache.prefetcher.pfIdentified       628704                       # number of prefetch candidates identified
system.cpu.icache.prefetcher.pfInCache              0                       # number of redundant prefetches already in cache/mshr dropped
system.cpu.icache.prefetcher.pfRemovedFull         8337                       # number of prefetches dropped due to prefetch queue size
system.cpu.icache.prefetcher.pfSpanPage      10764887                       # number of prefetches that crossed the page
system.cpu.idleCycles                          388890                       # Total number of cycles that the CPU has spent unscheduled due to idling
system.cpu.iew.branchMispredicts                67418                       # Number of branch mispredicts detected at execute
system.cpu.iew.exec_branches                  1977986                       # Number of branches executed
system.cpu.iew.exec_nop                         18413                       # number of nop insts executed
system.cpu.iew.exec_rate                     1.647190                       # Inst execution rate
system.cpu.iew.exec_refs                      2422377                       # number of memory reference insts executed
system.cpu.iew.exec_stores                     885655                       # Number of stores executed
system.cpu.iew.exec_swp                             0                       # number of swp insts executed
system.cpu.iew.iewBlockCycles                  131932                       # Number of cycles IEW is blocking
system.cpu.iew.iewDispLoadInsts               1577597                       # Number of dispatched load instructions
system.cpu.iew.iewDispNonSpecInsts                163                       # Number of dispatched non-speculative instructions
system.cpu.iew.iewDispSquashedInsts             27699                       # Number of squashed instructions skipped by dispatch
system.cpu.iew.iewDispStoreInsts               914283                       # Number of dispatched store instructions
system.cpu.iew.iewDispatchedInsts            10176118                       # Number of instructions dispatched to IQ
system.cpu.iew.iewExecLoadInsts               1536722                       # Number of load instructions executed
system.cpu.iew.iewExecSquashedInsts            100821                       # Number of squashed instructions skipped in execute
system.cpu.iew.iewExecutedInsts               9766895                       # Number of executed instructions
system.cpu.iew.iewIQFullEvents                    520                       # Number of times the IQ has become full, causing a stall
system.cpu.iew.iewIdleCycles                        0                       # Number of cycles IEW is idle
system.cpu.iew.iewLSQFullEvents                109126                       # Number of times the LSQ has become full, causing a stall
system.cpu.iew.iewSquashCycles                  63497                       # Number of cycles IEW is squashing
system.cpu.iew.iewUnblockCycles                110074                       # Number of cycles IEW is unblocking
system.cpu.iew.lsq.thread0.blockedLoads             0                       # Number of blocked loads due to partial load-store forwarding
system.cpu.iew.lsq.thread0.cacheBlocked          1067                       # Number of times an access to memory failed due to the cache being blocked
system.cpu.iew.lsq.thread0.forwLoads            26839                       # Number of loads that had data forwarded from stores
system.cpu.iew.lsq.thread0.ignoredResponses          102                       # Number of memory responses ignored because the instruction is squashed
system.cpu.iew.lsq.thread0.invAddrLoads             0                       # Number of loads ignored due to an invalid address
system.cpu.iew.lsq.thread0.invAddrSwpfs             0                       # Number of software prefetches ignored due to an invalid address
system.cpu.iew.lsq.thread0.memOrderViolation          298                       # Number of memory ordering violations
system.cpu.iew.lsq.thread0.rescheduledLoads        16227                       # Number of loads that were rescheduled
system.cpu.iew.lsq.thread0.squashedLoads       180516                       # Number of loads squashed
system.cpu.iew.lsq.thread0.squashedStores        71190                       # Number of stores squashed
system.cpu.iew.memOrderViolationEvents            298                       # Number of memory order violations
system.cpu.iew.predictedNotTakenIncorrect        38589                       # Number of branches that were predicted not taken incorrectly
system.cpu.iew.predictedTakenIncorrect          28829                       # Number of branches that were predicted taken incorrectly
system.cpu.iew.wb_consumers                  10113621                       # num instructions consuming a value
system.cpu.iew.wb_count                       9696517                       # cumulative count of insts written-back
system.cpu.iew.wb_fanout                     0.531349                       # average fanout of values written-back
system.cpu.iew.wb_producers                   5373860                       # num instructions producing a value
system.cpu.iew.wb_rate                       1.635321                       # insts written-back per cycle
system.cpu.iew.wb_sent                        9712246                       # cumulative count of insts sent to commit
system.cpu.int_regfile_reads                 11348542                       # number of integer regfile reads
system.cpu.int_regfile_writes                 7074907                       # number of integer regfile writes
system.cpu.ipc                               1.374517                       # IPC: Instructions Per Cycle
system.cpu.ipc_total                         1.374517                       # IPC: Total IPC of All Threads
system.cpu.iq.FU_type_0::No_OpClass                14      0.00%      0.00% # Type of FU issued
system.cpu.iq.FU_type_0::IntAlu               7369018     74.68%     74.68% # Type of FU issued
system.cpu.iq.FU_type_0::IntMult                26921      0.27%     74.95% # Type of FU issued
system.cpu.iq.FU_type_0::IntDiv                 11257      0.11%     75.07% # Type of FU issued
system.cpu.iq.FU_type_0::FloatAdd                   0      0.00%     75.07% # Type of FU issued
system.cpu.iq.FU_type_0::FloatCmp                   0      0.00%     75.07% # Type of FU issued
system.cpu.iq.FU_type_0::FloatCvt                   0      0.00%     75.07% # Type of FU issued
system.cpu.iq.FU_type_0::FloatMult                  0      0.00%     75.07% # Type of FU issued
system.cpu.iq.FU_type_0::FloatMultAcc               0      0.00%     75.07% # Type of FU issued
system.cpu.iq.FU_type_0::FloatDiv                   0      0.00%     75.07% # Type of FU issued
system.cpu.iq.FU_type_0::FloatMisc                  0      0.00%     75.07% # Type of FU issued
system.cpu.iq.FU_type_0::FloatSqrt                  0      0.00%     75.07% # Type of FU issued
system.cpu.iq.FU_type_0::SimdAdd                   45      0.00%     75.07% # Type of FU issued
system.cpu.iq.FU_type_0::SimdAddAcc                 0      0.00%     75.07% # Type of FU issued
system.cpu.iq.FU_type_0::SimdAlu                   55      0.00%     75.07% # Type of FU issued
system.cpu.iq.FU_type_0::SimdCmp                   56      0.00%     75.07% # Type of FU issued
system.cpu.iq.FU_type_0::SimdCvt                    0      0.00%     75.07% # Type of FU issued
system.cpu.iq.FU_type_0::SimdMisc                3339      0.03%     75.10% # Type of FU issued
system.cpu.iq.FU_type_0::SimdMult                   0      0.00%     75.10% # Type of FU issued
system.cpu.iq.FU_type_0::SimdMultAcc                0      0.00%     75.10% # Type of FU issued
system.cpu.iq.FU_type_0::SimdShift                  0      0.00%     75.10% # Type of FU issued
system.cpu.iq.FU_type_0::SimdShiftAcc               0      0.00%     75.10% # Type of FU issued
system.cpu.iq.FU_type_0::SimdDiv                    0      0.00%     75.10% # Type of FU issued
system.cpu.iq.FU_type_0::SimdSqrt                   0      0.00%     75.10% # Type of FU issued
system.cpu.iq.FU_type_0::SimdFloatAdd               0      0.00%     75.10% # Type of FU issued
system.cpu.iq.FU_type_0::SimdFloatAlu               0      0.00%     75.10% # Type of FU issued
system.cpu.iq.FU_type_0::SimdFloatCmp               0      0.00%     75.10% # Type of FU issued
system.cpu.iq.FU_type_0::SimdFloatCvt               0      0.00%     75.10% # Type of FU issued
system.cpu.iq.FU_type_0::SimdFloatDiv               0      0.00%     75.10% # Type of FU issued
system.cpu.iq.FU_type_0::SimdFloatMisc              0      0.00%     75.10% # Type of FU issued
system.cpu.iq.FU_type_0::SimdFloatMult              0      0.00%     75.10% # Type of FU issued
system.cpu.iq.FU_type_0::SimdFloatMultAcc            0      0.00%     75.10% # Type of FU issued
system.cpu.iq.FU_type_0::SimdFloatSqrt              0      0.00%     75.10% # Type of FU issued
system.cpu.iq.FU_type_0::SimdReduceAdd              0      0.00%     75.10% # Type of FU issued
system.cpu.iq.FU_type_0::SimdReduceAlu              0      0.00%     75.10% # Type of FU issued
system.cpu.iq.FU_type_0::SimdReduceCmp              0      0.00%     75.10% # Type of FU issued
system.cpu.iq.FU_type_0::SimdFloatReduceAdd            0      0.00%     75.10% # Type of FU issued
system.cpu.iq.FU_type_0::SimdFloatReduceCmp            0      0.00%     75.10% # Type of FU issued
system.cpu.iq.FU_type_0::SimdAes                    0      0.00%     75.10% # Type of FU issued
system.cpu.iq.FU_type_0::SimdAesMix                 0      0.00%     75.10% # Type of FU issued
system.cpu.iq.FU_type_0::SimdSha1Hash               0      0.00%     75.10% # Type of FU issued
system.cpu.iq.FU_type_0::SimdSha1Hash2              0      0.00%     75.10% # Type of FU issued
system.cpu.iq.FU_type_0::SimdSha256Hash             0      0.00%     75.10% # Type of FU issued
system.cpu.iq.FU_type_0::SimdSha256Hash2            0      0.00%     75.10% # Type of FU issued
system.cpu.iq.FU_type_0::SimdShaSigma2              0      0.00%     75.10% # Type of FU issued
system.cpu.iq.FU_type_0::SimdShaSigma3              0      0.00%     75.10% # Type of FU issued
system.cpu.iq.FU_type_0::SimdPredAlu                0      0.00%     75.10% # Type of FU issued
system.cpu.iq.FU_type_0::MemRead              1561100     15.82%     90.92% # Type of FU issued
system.cpu.iq.FU_type_0::MemWrite              895911      9.08%    100.00% # Type of FU issued
system.cpu.iq.FU_type_0::FloatMemRead               0      0.00%    100.00% # Type of FU issued
system.cpu.iq.FU_type_0::FloatMemWrite              0      0.00%    100.00% # Type of FU issued
system.cpu.iq.FU_type_0::IprAccess                  0      0.00%    100.00% # Type of FU issued
system.cpu.iq.FU_type_0::InstPrefetch               0      0.00%    100.00% # Type of FU issued
system.cpu.iq.FU_type_0::total                9867716                       # Type of FU issued
system.cpu.iq.fp_alu_accesses                       0                       # Number of floating point alu accesses
system.cpu.iq.fp_inst_queue_reads                   0                       # Number of floating instruction queue reads
system.cpu.iq.fp_inst_queue_wakeup_accesses            0                       # Number of floating instruction queue wakeup accesses
system.cpu.iq.fp_inst_queue_writes                  0                       # Number of floating instruction queue writes
system.cpu.iq.fu_busy_cnt                       89776                       # FU busy when requested
system.cpu.iq.fu_busy_rate                   0.009098                       # FU busy rate (busy events/executed inst)
system.cpu.iq.fu_full::No_OpClass                   0      0.00%      0.00% # attempts to use FU when none available
system.cpu.iq.fu_full::IntAlu                   35832     39.91%     39.91% # attempts to use FU when none available
system.cpu.iq.fu_full::IntMult                      0      0.00%     39.91% # attempts to use FU when none available
system.cpu.iq.fu_full::IntDiv                     972      1.08%     41.00% # attempts to use FU when none available
system.cpu.iq.fu_full::FloatAdd                     0      0.00%     41.00% # attempts to use FU when none available
system.cpu.iq.fu_full::FloatCmp                     0      0.00%     41.00% # attempts to use FU when none available
system.cpu.iq.fu_full::FloatCvt                     0      0.00%     41.00% # attempts to use FU when none available
system.cpu.iq.fu_full::FloatMult                    0      0.00%     41.00% # attempts to use FU when none available
system.cpu.iq.fu_full::FloatMultAcc                 0      0.00%     41.00% # attempts to use FU when none available
system.cpu.iq.fu_full::FloatDiv                     0      0.00%     41.00% # attempts to use FU when none available
system.cpu.iq.fu_full::FloatMisc                    0      0.00%     41.00% # attempts to use FU when none available
system.cpu.iq.fu_full::FloatSqrt                    0      0.00%     41.00% # attempts to use FU when none available
system.cpu.iq.fu_full::SimdAdd                      0      0.00%     41.00% # attempts to use FU when none available
system.cpu.iq.fu_full::SimdAddAcc                   0      0.00%     41.00% # attempts to use FU when none available
system.cpu.iq.fu_full::SimdAlu                      1      0.00%     41.00% # attempts to use FU when none available
system.cpu.iq.fu_full::SimdCmp                      2      0.00%     41.00% # attempts to use FU when none available
system.cpu.iq.fu_full::SimdCvt                      0      0.00%     41.00% # attempts to use FU when none available
system.cpu.iq.fu_full::SimdMisc                     0      0.00%     41.00% # attempts to use FU when none available
system.cpu.iq.fu_full::SimdMult                     0      0.00%     41.00% # attempts to use FU when none available
system.cpu.iq.fu_full::SimdMultAcc                  0      0.00%     41.00% # attempts to use FU when none available
system.cpu.iq.fu_full::SimdShift                    0      0.00%     41.00% # attempts to use FU when none available
system.cpu.iq.fu_full::SimdShiftAcc                 0      0.00%     41.00% # attempts to use FU when none available
system.cpu.iq.fu_full::SimdDiv                      0      0.00%     41.00% # attempts to use FU when none available
system.cpu.iq.fu_full::SimdSqrt                     0      0.00%     41.00% # attempts to use FU when none available
system.cpu.iq.fu_full::SimdFloatAdd                 0      0.00%     41.00% # attempts to use FU when none available
system.cpu.iq.fu_full::SimdFloatAlu                 0      0.00%     41.00% # attempts to use FU when none available
system.cpu.iq.fu_full::SimdFloatCmp                 0      0.00%     41.00% # attempts to use FU when none available
system.cpu.iq.fu_full::SimdFloatCvt                 0      0.00%     41.00% # attempts to use FU when none available
system.cpu.iq.fu_full::SimdFloatDiv                 0      0.00%     41.00% # attempts to use FU when none available
system.cpu.iq.fu_full::SimdFloatMisc                0      0.00%     41.00% # attempts to use FU when none available
system.cpu.iq.fu_full::SimdFloatMult                0      0.00%     41.00% # attempts to use FU when none available
system.cpu.iq.fu_full::SimdFloatMultAcc             0      0.00%     41.00% # attempts to use FU when none available
system.cpu.iq.fu_full::SimdFloatSqrt                0      0.00%     41.00% # attempts to use FU when none available
system.cpu.iq.fu_full::SimdReduceAdd                0      0.00%     41.00% # attempts to use FU when none available
system.cpu.iq.fu_full::SimdReduceAlu                0      0.00%     41.00% # attempts to use FU when none available
system.cpu.iq.fu_full::SimdReduceCmp                0      0.00%     41.00% # attempts to use FU when none available
system.cpu.iq.fu_full::SimdFloatReduceAdd            0      0.00%     41.00% # attempts to use FU when none available
system.cpu.iq.fu_full::SimdFloatReduceCmp            0      0.00%     41.00% # attempts to use FU when none available
system.cpu.iq.fu_full::SimdAes                      0      0.00%     41.00% # attempts to use FU when none available
system.cpu.iq.fu_full::SimdAesMix                   0      0.00%     41.00% # attempts to use FU when none available
system.cpu.iq.fu_full::SimdSha1Hash                 0      0.00%     41.00% # attempts to use FU when none available
system.cpu.iq.fu_full::SimdSha1Hash2                0      0.00%     41.00% # attempts to use FU when none available
system.cpu.iq.fu_full::SimdSha256Hash               0      0.00%     41.00% # attempts to use FU when none available
system.cpu.iq.fu_full::SimdSha256Hash2              0      0.00%     41.00% # attempts to use FU when none available
system.cpu.iq.fu_full::SimdShaSigma2                0      0.00%     41.00% # attempts to use FU when none available
system.cpu.iq.fu_full::SimdShaSigma3                0      0.00%     41.00% # attempts to use FU when none available
system.cpu.iq.fu_full::SimdPredAlu                  0      0.00%     41.00% # attempts to use FU when none available
system.cpu.iq.fu_full::MemRead                  21055     23.45%     64.45% # attempts to use FU when none available
system.cpu.iq.fu_full::MemWrite                 31914     35.55%    100.00% # attempts to use FU when none available
system.cpu.iq.fu_full::FloatMemRead                 0      0.00%    100.00% # attempts to use FU when none available
system.cpu.iq.fu_full::FloatMemWrite                0      0.00%    100.00% # attempts to use FU when none available
system.cpu.iq.fu_full::IprAccess                    0      0.00%    100.00% # attempts to use FU when none available
system.cpu.iq.fu_full::InstPrefetch                 0      0.00%    100.00% # attempts to use FU when none available
system.cpu.iq.int_alu_accesses                9859868                       # Number of integer alu accesses
system.cpu.iq.int_inst_queue_reads           25185331                       # Number of integer instruction queue reads
system.cpu.iq.int_inst_queue_wakeup_accesses      9610701                       # Number of integer instruction queue wakeup accesses
system.cpu.iq.int_inst_queue_writes          11120779                       # Number of integer instruction queue writes
system.cpu.iq.iqInstsAdded                   10157542                       # Number of instructions added to the IQ (excludes non-spec)
system.cpu.iq.iqInstsIssued                   9867716                       # Number of instructions issued
system.cpu.iq.iqNonSpecInstsAdded                 163                       # Number of non-speculative instructions added to the IQ
system.cpu.iq.iqSquashedInstsExamined         1054194                       # Number of squashed instructions iterated over during squash; mainly for profiling
system.cpu.iq.iqSquashedInstsIssued              4317                       # Number of squashed instructions issued
system.cpu.iq.iqSquashedNonSpecRemoved             47                       # Number of squashed non-spec instructions that were removed
system.cpu.iq.iqSquashedOperandsExamined       763436                       # Number of squashed operands that are examined and possibly removed from graph
system.cpu.iq.issued_per_cycle::samples       5540539                       # Number of insts issued each cycle
system.cpu.iq.issued_per_cycle::mean         1.781003                       # Number of insts issued each cycle
system.cpu.iq.issued_per_cycle::stdev        1.975964                       # Number of insts issued each cycle
system.cpu.iq.issued_per_cycle::underflows            0      0.00%      0.00% # Number of insts issued each cycle
system.cpu.iq.issued_per_cycle::0             2280691     41.16%     41.16% # Number of insts issued each cycle
system.cpu.iq.issued_per_cycle::1              652056     11.77%     52.93% # Number of insts issued each cycle
system.cpu.iq.issued_per_cycle::2              824868     14.89%     67.82% # Number of insts issued each cycle
system.cpu.iq.issued_per_cycle::3              683188     12.33%     80.15% # Number of insts issued each cycle
system.cpu.iq.issued_per_cycle::4              490044      8.84%     89.00% # Number of insts issued each cycle
system.cpu.iq.issued_per_cycle::5              274128      4.95%     93.94% # Number of insts issued each cycle
system.cpu.iq.issued_per_cycle::6              210699      3.80%     97.75% # Number of insts issued each cycle
system.cpu.iq.issued_per_cycle::7               77570      1.40%     99.15% # Number of insts issued each cycle
system.cpu.iq.issued_per_cycle::8               47295      0.85%    100.00% # Number of insts issued each cycle
system.cpu.iq.issued_per_cycle::overflows            0      0.00%    100.00% # Number of insts issued each cycle
system.cpu.iq.issued_per_cycle::min_value            0                       # Number of insts issued each cycle
system.cpu.iq.issued_per_cycle::max_value            8                       # Number of insts issued each cycle
system.cpu.iq.issued_per_cycle::total         5540539                       # Number of insts issued each cycle
system.cpu.iq.rate                           1.664193                       # Inst issue rate
system.cpu.iq.vec_alu_accesses                  97610                       # Number of vector alu accesses
system.cpu.iq.vec_inst_queue_reads             184733                       # Number of vector instruction queue reads
system.cpu.iq.vec_inst_queue_wakeup_accesses        85816                       # Number of vector instruction queue wakeup accesses
system.cpu.iq.vec_inst_queue_writes             91406                       # Number of vector instruction queue writes
system.cpu.itb.accesses                             0                       # DTB accesses
system.cpu.itb.align_faults                         0                       # Number of TLB faults due to alignment restrictions
system.cpu.itb.domain_faults                        0                       # Number of TLB faults due to domain restrictions
system.cpu.itb.flush_entries                        0                       # Number of entries that have been flushed from TLB
system.cpu.itb.flush_tlb                            0                       # Number of times complete TLB was flushed
system.cpu.itb.flush_tlb_asid                       0                       # Number of times TLB was flushed by ASID
system.cpu.itb.flush_tlb_mva                        0                       # Number of times TLB was flushed by MVA
system.cpu.itb.flush_tlb_mva_asid                   0                       # Number of times TLB was flushed by MVA & ASID
system.cpu.itb.hits                                 0                       # DTB hits
system.cpu.itb.inst_accesses                        0                       # ITB inst accesses
system.cpu.itb.inst_hits                            0                       # ITB inst hits
system.cpu.itb.inst_misses                          0                       # ITB inst misses
system.cpu.itb.misses                               0                       # DTB misses
system.cpu.itb.perms_faults                         0                       # Number of TLB faults due to permissions restrictions
system.cpu.itb.prefetch_faults                      0                       # Number of TLB faults due to prefetch
system.cpu.itb.read_accesses                        0                       # DTB read accesses
system.cpu.itb.read_hits                            0                       # DTB read hits
system.cpu.itb.read_misses                          0                       # DTB read misses
system.cpu.itb.stage2_mmu.stage2_tlb.accesses            0                       # DTB accesses
system.cpu.itb.stage2_mmu.stage2_tlb.align_faults            0                       # Number of TLB faults due to alignment restrictions
system.cpu.itb.stage2_mmu.stage2_tlb.domain_faults            0                       # Number of TLB faults due to domain restrictions
system.cpu.itb.stage2_mmu.stage2_tlb.flush_entries            0                       # Number of entries that have been flushed from TLB
system.cpu.itb.stage2_mmu.stage2_tlb.flush_tlb            0                       # Number of times complete TLB was flushed
system.cpu.itb.stage2_mmu.stage2_tlb.flush_tlb_asid            0                       # Number of times TLB was flushed by ASID
system.cpu.itb.stage2_mmu.stage2_tlb.flush_tlb_mva            0                       # Number of times TLB was flushed by MVA
system.cpu.itb.stage2_mmu.stage2_tlb.flush_tlb_mva_asid            0                       # Number of times TLB was flushed by MVA & ASID
system.cpu.itb.stage2_mmu.stage2_tlb.hits            0                       # DTB hits
system.cpu.itb.stage2_mmu.stage2_tlb.inst_accesses            0                       # ITB inst accesses
system.cpu.itb.stage2_mmu.stage2_tlb.inst_hits            0                       # ITB inst hits
system.cpu.itb.stage2_mmu.stage2_tlb.inst_misses            0                       # ITB inst misses
system.cpu.itb.stage2_mmu.stage2_tlb.misses            0                       # DTB misses
system.cpu.itb.stage2_mmu.stage2_tlb.perms_faults            0                       # Number of TLB faults due to permissions restrictions
system.cpu.itb.stage2_mmu.stage2_tlb.prefetch_faults            0                       # Number of TLB faults due to prefetch
system.cpu.itb.stage2_mmu.stage2_tlb.read_accesses            0                       # DTB read accesses
system.cpu.itb.stage2_mmu.stage2_tlb.read_hits            0                       # DTB read hits
system.cpu.itb.stage2_mmu.stage2_tlb.read_misses            0                       # DTB read misses
system.cpu.itb.stage2_mmu.stage2_tlb.walker.walkRequestOrigin_Requested::Data            0                       # Table walker requests started/completed, data/inst
system.cpu.itb.stage2_mmu.stage2_tlb.walker.walkRequestOrigin_Requested::Inst            0                       # Table walker requests started/completed, data/inst
system.cpu.itb.stage2_mmu.stage2_tlb.walker.walkRequestOrigin_Requested::total            0                       # Table walker requests started/completed, data/inst
system.cpu.itb.stage2_mmu.stage2_tlb.walker.walkRequestOrigin_Completed::Data            0                       # Table walker requests started/completed, data/inst
system.cpu.itb.stage2_mmu.stage2_tlb.walker.walkRequestOrigin_Completed::Inst            0                       # Table walker requests started/completed, data/inst
system.cpu.itb.stage2_mmu.stage2_tlb.walker.walkRequestOrigin_Completed::total            0                       # Table walker requests started/completed, data/inst
system.cpu.itb.stage2_mmu.stage2_tlb.walker.walkRequestOrigin::total            0                       # Table walker requests started/completed, data/inst
system.cpu.itb.stage2_mmu.stage2_tlb.walker.walks            0                       # Table walker walks requested
system.cpu.itb.stage2_mmu.stage2_tlb.write_accesses            0                       # DTB write accesses
system.cpu.itb.stage2_mmu.stage2_tlb.write_hits            0                       # DTB write hits
system.cpu.itb.stage2_mmu.stage2_tlb.write_misses            0                       # DTB write misses
system.cpu.itb.walker.walkRequestOrigin_Requested::Data            0                       # Table walker requests started/completed, data/inst
system.cpu.itb.walker.walkRequestOrigin_Requested::Inst            0                       # Table walker requests started/completed, data/inst
system.cpu.itb.walker.walkRequestOrigin_Requested::total            0                       # Table walker requests started/completed, data/inst
system.cpu.itb.walker.walkRequestOrigin_Completed::Data            0                       # Table walker requests started/completed, data/inst
system.cpu.itb.walker.walkRequestOrigin_Completed::Inst            0                       # Table walker requests started/completed, data/inst
system.cpu.itb.walker.walkRequestOrigin_Completed::total            0                       # Table walker requests started/completed, data/inst
system.cpu.itb.walker.walkRequestOrigin::total            0                       # Table walker requests started/completed, data/inst
system.cpu.itb.walker.walks                         0                       # Table walker walks requested
system.cpu.itb.write_accesses                       0                       # DTB write accesses
system.cpu.itb.write_hits                           0                       # DTB write hits
system.cpu.itb.write_misses                         0                       # DTB write misses
system.cpu.memDep0.conflictingLoads             26491                       # Number of conflicting loads.
system.cpu.memDep0.conflictingStores            47903                       # Number of conflicting stores.
system.cpu.memDep0.insertedLoads              1577597                       # Number of loads inserted to the mem dependence unit.
system.cpu.memDep0.insertedStores              914283                       # Number of stores inserted to the mem dependence unit.
system.cpu.misc_regfile_reads                 6466704                       # number of misc regfile reads
system.cpu.misc_regfile_writes                    369                       # number of misc regfile writes
system.cpu.numCycles                          5929429                       # number of cpu cycles simulated
system.cpu.numWorkItemsCompleted                    0                       # number of work items this cpu completed
system.cpu.numWorkItemsStarted                      0                       # number of work items this cpu started
system.cpu.rename.BlockCycles                  262615                       # Number of cycles rename is blocking
system.cpu.rename.CommittedMaps              10715582                       # Number of HB maps that are committed
system.cpu.rename.IQFullEvents                  14054                       # Number of times rename has blocked due to IQ full
system.cpu.rename.IdleCycles                  2593927                       # Number of cycles rename is idle
system.cpu.rename.LQFullEvents                   2865                       # Number of times rename has blocked due to LQ full
system.cpu.rename.ROBFullEvents                  1679                       # Number of times rename has blocked due to ROB full
system.cpu.rename.RenameLookups              17345353                       # Number of register rename lookups that rename has made
system.cpu.rename.RenamedInsts               10491398                       # Number of instructions processed by rename
system.cpu.rename.RenamedOperands            12384780                       # Number of destination operands rename has renamed
system.cpu.rename.RunCycles                   2120835                       # Number of cycles rename is running
system.cpu.rename.SQFullEvents                 446842                       # Number of times rename has blocked due to SQ full
system.cpu.rename.SquashCycles                  63497                       # Number of cycles rename is squashing
system.cpu.rename.UnblockCycles                466732                       # Number of cycles rename is unblocking
system.cpu.rename.UndoneMaps                  1669198                       # Number of HB maps that are undone due to squashing
system.cpu.rename.int_rename_lookups         12225281                       # Number of integer rename lookups
system.cpu.rename.serializeStallCycles          32933                       # count of cycles rename stalled for serializing inst
system.cpu.rename.serializingInsts               1322                       # count of serializing insts renamed
system.cpu.rename.skidInsts                    134399                       # count of insts added to the skid buffer
system.cpu.rename.tempSerializingInsts            168                       # count of temporary serializing insts renamed
system.cpu.rename.vec_rename_lookups            85581                       # Number of vector rename lookups
system.cpu.rob.rob_reads                     15069206                       # The number of ROB reads
system.cpu.rob.rob_writes                    20511549                       # The number of ROB writes
system.cpu.timesIdled                           34915                       # Number of times that the entire CPU went into an idle state and unscheduled itself
system.cpu.vec_regfile_reads                    83190                       # number of vector regfile reads
system.cpu.vec_regfile_writes                    3492                       # number of vector regfile writes
system.cpu.workload.numSyscalls                    23                       # Number of system calls
system.membus.snoop_filter.hit_multi_requests            0                       # Number of requests hitting in the snoop filter with multiple (>1) holders of the requested data.
system.membus.snoop_filter.hit_multi_snoops            0                       # Number of snoops hitting in the snoop filter with multiple (>1) holders of the requested data.
system.membus.snoop_filter.hit_single_requests            1                       # Number of requests hitting in the snoop filter with a single holder of the requested data.
system.membus.snoop_filter.hit_single_snoops            0                       # Number of snoops hitting in the snoop filter with a single holder of the requested data.
system.membus.snoop_filter.tot_requests         15198                       # Total number of requests made to the snoop filter.
system.membus.snoop_filter.tot_snoops               0                       # Total number of snoops made to the snoop filter.
system.tol2bus.snoop_filter.hit_multi_requests            5                       # Number of requests hitting in the snoop filter with multiple (>1) holders of the requested data.
system.tol2bus.snoop_filter.hit_multi_snoops            0                       # Number of snoops hitting in the snoop filter with multiple (>1) holders of the requested data.
system.tol2bus.snoop_filter.hit_single_requests       148885                       # Number of requests hitting in the snoop filter with a single holder of the requested data.
system.tol2bus.snoop_filter.hit_single_snoops            0                       # Number of snoops hitting in the snoop filter with a single holder of the requested data.
system.tol2bus.snoop_filter.tot_requests       299049                       # Total number of requests made to the snoop filter.
system.tol2bus.snoop_filter.tot_snoops              0                       # Total number of snoops made to the snoop filter.
system.membus.trans_dist::ReadResp               4450                       # Transaction distribution
system.membus.trans_dist::CleanEvict                1                       # Transaction distribution
system.membus.trans_dist::ReadExReq              9507                       # Transaction distribution
system.membus.trans_dist::ReadExResp             9507                       # Transaction distribution
system.membus.trans_dist::ReadSharedReq          4450                       # Transaction distribution
system.membus.trans_dist::InvalidateReq          1240                       # Transaction distribution
system.membus.pkt_count_system.l2.mem_side::system.mem_ctrls.port        29155                       # Packet count per connected master and slave (bytes)
system.membus.pkt_count::total                  29155                       # Packet count per connected master and slave (bytes)
system.membus.pkt_size_system.l2.mem_side::system.mem_ctrls.port       893248                       # Cumulative packet size per connected master and slave (bytes)
system.membus.pkt_size::total                  893248                       # Cumulative packet size per connected master and slave (bytes)
system.membus.snoops                                0                       # Total snoops (count)
system.membus.snoopTraffic                          0                       # Total snoop traffic (bytes)
system.membus.snoop_fanout::samples             15197                       # Request fanout histogram
system.membus.snoop_fanout::mean                    0                       # Request fanout histogram
system.membus.snoop_fanout::stdev                   0                       # Request fanout histogram
system.membus.snoop_fanout::underflows              0      0.00%      0.00% # Request fanout histogram
system.membus.snoop_fanout::0                   15197    100.00%    100.00% # Request fanout histogram
system.membus.snoop_fanout::1                       0      0.00%    100.00% # Request fanout histogram
system.membus.snoop_fanout::overflows               0      0.00%    100.00% # Request fanout histogram
system.membus.snoop_fanout::min_value               0                       # Request fanout histogram
system.membus.snoop_fanout::max_value               0                       # Request fanout histogram
system.membus.snoop_fanout::total               15197                       # Request fanout histogram
system.membus.reqLayer0.occupancy            18709000                       # Layer occupancy (ticks)
system.membus.reqLayer0.utilization               0.6                       # Layer utilization (%)
system.membus.respLayer1.occupancy           73861250                       # Layer occupancy (ticks)
system.membus.respLayer1.utilization              2.5                       # Layer utilization (%)
system.membus.power_state.pwrStateResidencyTicks::UNDEFINED   2964706000                       # Cumulative time (in ticks) in various power states
system.tol2bus.trans_dist::ReadResp            139091                       # Transaction distribution
system.tol2bus.trans_dist::WritebackDirty        12300                       # Transaction distribution
system.tol2bus.trans_dist::WritebackClean       135550                       # Transaction distribution
system.tol2bus.trans_dist::CleanEvict            1035                       # Transaction distribution
system.tol2bus.trans_dist::ReadExReq             9820                       # Transaction distribution
system.tol2bus.trans_dist::ReadExResp            9820                       # Transaction distribution
system.tol2bus.trans_dist::ReadCleanReq        135807                       # Transaction distribution
system.tol2bus.trans_dist::ReadSharedReq         3285                       # Transaction distribution
system.tol2bus.trans_dist::InvalidateReq         1253                       # Transaction distribution
system.tol2bus.trans_dist::InvalidateResp         1253                       # Transaction distribution
system.tol2bus.pkt_count_system.cpu.icache.mem_side::system.l2.cpu_side       407163                       # Packet count per connected master and slave (bytes)
system.tol2bus.pkt_count_system.cpu.dcache.mem_side::system.l2.cpu_side        42050                       # Packet count per connected master and slave (bytes)
system.tol2bus.pkt_count::total                449213                       # Packet count per connected master and slave (bytes)
system.tol2bus.pkt_size_system.cpu.icache.mem_side::system.l2.cpu_side     17366784                       # Cumulative packet size per connected master and slave (bytes)
system.tol2bus.pkt_size_system.cpu.dcache.mem_side::system.l2.cpu_side      1625920                       # Cumulative packet size per connected master and slave (bytes)
system.tol2bus.pkt_size::total               18992704                       # Cumulative packet size per connected master and slave (bytes)
system.tol2bus.snoops                               1                       # Total snoops (count)
system.tol2bus.snoopTraffic                         0                       # Total snoop traffic (bytes)
system.tol2bus.snoop_fanout::samples           150166                       # Request fanout histogram
system.tol2bus.snoop_fanout::mean            0.000040                       # Request fanout histogram
system.tol2bus.snoop_fanout::stdev           0.006321                       # Request fanout histogram
system.tol2bus.snoop_fanout::underflows             0      0.00%      0.00% # Request fanout histogram
system.tol2bus.snoop_fanout::0                 150160    100.00%    100.00% # Request fanout histogram
system.tol2bus.snoop_fanout::1                      6      0.00%    100.00% # Request fanout histogram
system.tol2bus.snoop_fanout::2                      0      0.00%    100.00% # Request fanout histogram
system.tol2bus.snoop_fanout::overflows              0      0.00%    100.00% # Request fanout histogram
system.tol2bus.snoop_fanout::min_value              0                       # Request fanout histogram
system.tol2bus.snoop_fanout::max_value              1                       # Request fanout histogram
system.tol2bus.snoop_fanout::total             150166                       # Request fanout histogram
system.tol2bus.reqLayer0.occupancy          324616378                       # Layer occupancy (ticks)
system.tol2bus.reqLayer0.utilization             10.9                       # Layer utilization (%)
system.tol2bus.respLayer1.occupancy          20430706                       # Layer occupancy (ticks)
system.tol2bus.respLayer1.utilization             0.7                       # Layer utilization (%)
system.tol2bus.respLayer0.occupancy         203710497                       # Layer occupancy (ticks)
system.tol2bus.respLayer0.utilization             6.9                       # Layer utilization (%)
system.tol2bus.power_state.pwrStateResidencyTicks::UNDEFINED   2964706000                       # Cumulative time (in ticks) in various power states
system.voltage_domain.voltage                       1                       # Voltage in Volts
system.clk_domain.clock                          1000                       # Clock period in ticks
system.l2.demand_hits::.cpu.inst                42389                       # number of demand (read+write) hits
system.l2.demand_hits::.cpu.data                 2014                       # number of demand (read+write) hits
system.l2.demand_hits::.cpu.icache.prefetcher        90551                       # number of demand (read+write) hits
system.l2.demand_hits::total                   134954                       # number of demand (read+write) hits
system.l2.overall_hits::.cpu.inst               42389                       # number of overall hits
system.l2.overall_hits::.cpu.data                2014                       # number of overall hits
system.l2.overall_hits::.cpu.icache.prefetcher        90551                       # number of overall hits
system.l2.overall_hits::total                  134954                       # number of overall hits
system.l2.demand_misses::.cpu.inst               2867                       # number of demand (read+write) misses
system.l2.demand_misses::.cpu.data              11091                       # number of demand (read+write) misses
system.l2.demand_misses::total                  13958                       # number of demand (read+write) misses
system.l2.overall_misses::.cpu.inst              2867                       # number of overall misses
system.l2.overall_misses::.cpu.data             11091                       # number of overall misses
system.l2.overall_misses::total                 13958                       # number of overall misses
system.l2.demand_miss_latency::.cpu.inst    227436000                       # number of demand (read+write) miss cycles
system.l2.demand_miss_latency::.cpu.data    876811000                       # number of demand (read+write) miss cycles
system.l2.demand_miss_latency::total       1104247000                       # number of demand (read+write) miss cycles
system.l2.overall_miss_latency::.cpu.inst    227436000                       # number of overall miss cycles
system.l2.overall_miss_latency::.cpu.data    876811000                       # number of overall miss cycles
system.l2.overall_miss_latency::total      1104247000                       # number of overall miss cycles
system.l2.demand_accesses::.cpu.inst            45256                       # number of demand (read+write) accesses
system.l2.demand_accesses::.cpu.data            13105                       # number of demand (read+write) accesses
system.l2.demand_accesses::.cpu.icache.prefetcher        90551                       # number of demand (read+write) accesses
system.l2.demand_accesses::total               148912                       # number of demand (read+write) accesses
system.l2.overall_accesses::.cpu.inst           45256                       # number of overall (read+write) accesses
system.l2.overall_accesses::.cpu.data           13105                       # number of overall (read+write) accesses
system.l2.overall_accesses::.cpu.icache.prefetcher        90551                       # number of overall (read+write) accesses
system.l2.overall_accesses::total              148912                       # number of overall (read+write) accesses
system.l2.demand_miss_rate::.cpu.inst        0.063351                       # miss rate for demand accesses
system.l2.demand_miss_rate::.cpu.data        0.846318                       # miss rate for demand accesses
system.l2.demand_miss_rate::total            0.093733                       # miss rate for demand accesses
system.l2.overall_miss_rate::.cpu.inst       0.063351                       # miss rate for overall accesses
system.l2.overall_miss_rate::.cpu.data       0.846318                       # miss rate for overall accesses
system.l2.overall_miss_rate::total           0.093733                       # miss rate for overall accesses
system.l2.demand_avg_miss_latency::.cpu.inst 79328.915242                       # average overall miss latency
system.l2.demand_avg_miss_latency::.cpu.data 79056.081508                       # average overall miss latency
system.l2.demand_avg_miss_latency::total 79112.122081                       # average overall miss latency
system.l2.overall_avg_miss_latency::.cpu.inst 79328.915242                       # average overall miss latency
system.l2.overall_avg_miss_latency::.cpu.data 79056.081508                       # average overall miss latency
system.l2.overall_avg_miss_latency::total 79112.122081                       # average overall miss latency
system.l2.blocked_cycles::no_mshrs                  0                       # number of cycles access was blocked
system.l2.blocked_cycles::no_targets                0                       # number of cycles access was blocked
system.l2.blocked::no_mshrs                         0                       # number of cycles access was blocked
system.l2.blocked::no_targets                       0                       # number of cycles access was blocked
system.l2.avg_blocked_cycles::no_mshrs            nan                       # average number of cycles each access was blocked
system.l2.avg_blocked_cycles::no_targets          nan                       # average number of cycles each access was blocked
system.l2.demand_mshr_misses::.cpu.inst          2867                       # number of demand (read+write) MSHR misses
system.l2.demand_mshr_misses::.cpu.data         11091                       # number of demand (read+write) MSHR misses
system.l2.demand_mshr_misses::total             13958                       # number of demand (read+write) MSHR misses
system.l2.overall_mshr_misses::.cpu.inst         2867                       # number of overall MSHR misses
system.l2.overall_mshr_misses::.cpu.data        11091                       # number of overall MSHR misses
system.l2.overall_mshr_misses::total            13958                       # number of overall MSHR misses
system.l2.demand_mshr_miss_latency::.cpu.inst    198775501                       # number of demand (read+write) MSHR miss cycles
system.l2.demand_mshr_miss_latency::.cpu.data    765900501                       # number of demand (read+write) MSHR miss cycles
system.l2.demand_mshr_miss_latency::total    964676002                       # number of demand (read+write) MSHR miss cycles
system.l2.overall_mshr_miss_latency::.cpu.inst    198775501                       # number of overall MSHR miss cycles
system.l2.overall_mshr_miss_latency::.cpu.data    765900501                       # number of overall MSHR miss cycles
system.l2.overall_mshr_miss_latency::total    964676002                       # number of overall MSHR miss cycles
system.l2.demand_mshr_miss_rate::.cpu.inst     0.063351                       # mshr miss rate for demand accesses
system.l2.demand_mshr_miss_rate::.cpu.data     0.846318                       # mshr miss rate for demand accesses
system.l2.demand_mshr_miss_rate::total       0.093733                       # mshr miss rate for demand accesses
system.l2.overall_mshr_miss_rate::.cpu.inst     0.063351                       # mshr miss rate for overall accesses
system.l2.overall_mshr_miss_rate::.cpu.data     0.846318                       # mshr miss rate for overall accesses
system.l2.overall_mshr_miss_rate::total      0.093733                       # mshr miss rate for overall accesses
system.l2.demand_avg_mshr_miss_latency::.cpu.inst 69332.229159                       # average overall mshr miss latency
system.l2.demand_avg_mshr_miss_latency::.cpu.data 69056.036516                       # average overall mshr miss latency
system.l2.demand_avg_mshr_miss_latency::total 69112.767015                       # average overall mshr miss latency
system.l2.overall_avg_mshr_miss_latency::.cpu.inst 69332.229159                       # average overall mshr miss latency
system.l2.overall_avg_mshr_miss_latency::.cpu.data 69056.036516                       # average overall mshr miss latency
system.l2.overall_avg_mshr_miss_latency::total 69112.767015                       # average overall mshr miss latency
system.l2.replacements                              1                       # number of replacements
system.l2.WritebackDirty_hits::.writebacks        12300                       # number of WritebackDirty hits
system.l2.WritebackDirty_hits::total            12300                       # number of WritebackDirty hits
system.l2.WritebackDirty_accesses::.writebacks        12300                       # number of WritebackDirty accesses(hits+misses)
system.l2.WritebackDirty_accesses::total        12300                       # number of WritebackDirty accesses(hits+misses)
system.l2.WritebackClean_hits::.writebacks       135546                       # number of WritebackClean hits
system.l2.WritebackClean_hits::total           135546                       # number of WritebackClean hits
system.l2.WritebackClean_accesses::.writebacks       135546                       # number of WritebackClean accesses(hits+misses)
system.l2.WritebackClean_accesses::total       135546                       # number of WritebackClean accesses(hits+misses)
system.l2.ReadExReq_hits::.cpu.data               313                       # number of ReadExReq hits
system.l2.ReadExReq_hits::total                   313                       # number of ReadExReq hits
system.l2.ReadExReq_misses::.cpu.data            9507                       # number of ReadExReq misses
system.l2.ReadExReq_misses::total                9507                       # number of ReadExReq misses
system.l2.ReadExReq_miss_latency::.cpu.data    744051500                       # number of ReadExReq miss cycles
system.l2.ReadExReq_miss_latency::total     744051500                       # number of ReadExReq miss cycles
system.l2.ReadExReq_accesses::.cpu.data          9820                       # number of ReadExReq accesses(hits+misses)
system.l2.ReadExReq_accesses::total              9820                       # number of ReadExReq accesses(hits+misses)
system.l2.ReadExReq_miss_rate::.cpu.data     0.968126                       # miss rate for ReadExReq accesses
system.l2.ReadExReq_miss_rate::total         0.968126                       # miss rate for ReadExReq accesses
system.l2.ReadExReq_avg_miss_latency::.cpu.data 78263.542653                       # average ReadExReq miss latency
system.l2.ReadExReq_avg_miss_latency::total 78263.542653                       # average ReadExReq miss latency
system.l2.ReadExReq_mshr_misses::.cpu.data         9507                       # number of ReadExReq MSHR misses
system.l2.ReadExReq_mshr_misses::total           9507                       # number of ReadExReq MSHR misses
system.l2.ReadExReq_mshr_miss_latency::.cpu.data    648981001                       # number of ReadExReq MSHR miss cycles
system.l2.ReadExReq_mshr_miss_latency::total    648981001                       # number of ReadExReq MSHR miss cycles
system.l2.ReadExReq_mshr_miss_rate::.cpu.data     0.968126                       # mshr miss rate for ReadExReq accesses
system.l2.ReadExReq_mshr_miss_rate::total     0.968126                       # mshr miss rate for ReadExReq accesses
system.l2.ReadExReq_avg_mshr_miss_latency::.cpu.data 68263.490165                       # average ReadExReq mshr miss latency
system.l2.ReadExReq_avg_mshr_miss_latency::total 68263.490165                       # average ReadExReq mshr miss latency
system.l2.ReadCleanReq_hits::.cpu.inst          42389                       # number of ReadCleanReq hits
system.l2.ReadCleanReq_hits::.cpu.icache.prefetcher        90551                       # number of ReadCleanReq hits
system.l2.ReadCleanReq_hits::total             132940                       # number of ReadCleanReq hits
system.l2.ReadCleanReq_misses::.cpu.inst         2867                       # number of ReadCleanReq misses
system.l2.ReadCleanReq_misses::total             2867                       # number of ReadCleanReq misses
system.l2.ReadCleanReq_miss_latency::.cpu.inst    227436000                       # number of ReadCleanReq miss cycles
system.l2.ReadCleanReq_miss_latency::total    227436000                       # number of ReadCleanReq miss cycles
system.l2.ReadCleanReq_accesses::.cpu.inst        45256                       # number of ReadCleanReq accesses(hits+misses)
system.l2.ReadCleanReq_accesses::.cpu.icache.prefetcher        90551                       # number of ReadCleanReq accesses(hits+misses)
[...]
system.cpu.dcache.demand_accesses::.cpu.data      2338098                       # number of demand (read+write) accesses
system.cpu.dcache.demand_accesses::total      2338098                       # number of demand (read+write) accesses
system.cpu.dcache.overall_accesses::.cpu.data      2338637                       # number of overall (read+write) accesses
system.cpu.dcache.overall_accesses::total      2338637                       # number of overall (read+write) accesses
system.cpu.dcache.demand_miss_rate::.cpu.data     0.038599                       # miss rate for demand accesses
system.cpu.dcache.demand_miss_rate::total     0.038599                       # miss rate for demand accesses
system.cpu.dcache.overall_miss_rate::.cpu.data     0.038592                       # miss rate for overall accesses
system.cpu.dcache.overall_miss_rate::total     0.038592                       # miss rate for overall accesses
system.cpu.dcache.demand_avg_miss_latency::.cpu.data 66117.316624                       # average overall miss latency
system.cpu.dcache.demand_avg_miss_latency::total 66117.316624                       # average overall miss latency
system.cpu.dcache.overall_avg_miss_latency::.cpu.data 66114.386314                       # average overall miss latency
system.cpu.dcache.overall_avg_miss_latency::total 66114.386314                       # average overall miss latency
system.cpu.dcache.blocked_cycles::no_mshrs        43290                       # number of cycles access was blocked
system.cpu.dcache.blocked_cycles::no_targets         1637                       # number of cycles access was blocked
system.cpu.dcache.blocked::no_mshrs              1197                       # number of cycles access was blocked
system.cpu.dcache.blocked::no_targets              14                       # number of cycles access was blocked
system.cpu.dcache.avg_blocked_cycles::no_mshrs    36.165414                       # average number of cycles each access was blocked
system.cpu.dcache.avg_blocked_cycles::no_targets   116.928571                       # average number of cycles each access was blocked
system.cpu.dcache.writebacks::.writebacks        12300                       # number of writebacks
system.cpu.dcache.writebacks::total             12300                       # number of writebacks
system.cpu.dcache.demand_mshr_hits::.cpu.data        75896                       # number of demand (read+write) MSHR hits
system.cpu.dcache.demand_mshr_hits::total        75896                       # number of demand (read+write) MSHR hits
system.cpu.dcache.overall_mshr_hits::.cpu.data        75896                       # number of overall MSHR hits
system.cpu.dcache.overall_mshr_hits::total        75896                       # number of overall MSHR hits
system.cpu.dcache.demand_mshr_misses::.cpu.data        14353                       # number of demand (read+write) MSHR misses
system.cpu.dcache.demand_mshr_misses::total        14353                       # number of demand (read+write) MSHR misses
system.cpu.dcache.overall_mshr_misses::.cpu.data        14356                       # number of overall MSHR misses
system.cpu.dcache.overall_mshr_misses::total        14356                       # number of overall MSHR misses
system.cpu.dcache.demand_mshr_miss_latency::.cpu.data    957926923                       # number of demand (read+write) MSHR miss cycles
system.cpu.dcache.demand_mshr_miss_latency::total    957926923                       # number of demand (read+write) MSHR miss cycles
system.cpu.dcache.overall_mshr_miss_latency::.cpu.data    958224423                       # number of overall MSHR miss cycles
system.cpu.dcache.overall_mshr_miss_latency::total    958224423                       # number of overall MSHR miss cycles
system.cpu.dcache.demand_mshr_miss_rate::.cpu.data     0.006139                       # mshr miss rate for demand accesses
system.cpu.dcache.demand_mshr_miss_rate::total     0.006139                       # mshr miss rate for demand accesses
system.cpu.dcache.overall_mshr_miss_rate::.cpu.data     0.006139                       # mshr miss rate for overall accesses
system.cpu.dcache.overall_mshr_miss_rate::total     0.006139                       # mshr miss rate for overall accesses
system.cpu.dcache.demand_avg_mshr_miss_latency::.cpu.data 66740.536682                       # average overall mshr miss latency
system.cpu.dcache.demand_avg_mshr_miss_latency::total 66740.536682                       # average overall mshr miss latency
system.cpu.dcache.overall_avg_mshr_miss_latency::.cpu.data 66747.312831                       # average overall mshr miss latency
system.cpu.dcache.overall_avg_mshr_miss_latency::total 66747.312831                       # average overall mshr miss latency
system.cpu.dcache.replacements                  13334                       # number of replacements
system.cpu.dcache.ReadReq_hits::.cpu.data      1486236                       # number of ReadReq hits
system.cpu.dcache.ReadReq_hits::total         1486236                       # number of ReadReq hits
system.cpu.dcache.ReadReq_misses::.cpu.data         8706                       # number of ReadReq misses
system.cpu.dcache.ReadReq_misses::total          8706                       # number of ReadReq misses
system.cpu.dcache.ReadReq_miss_latency::.cpu.data    448754500                       # number of ReadReq miss cycles
system.cpu.dcache.ReadReq_miss_latency::total    448754500                       # number of ReadReq miss cycles
system.cpu.dcache.ReadReq_accesses::.cpu.data      1494942                       # number of ReadReq accesses(hits+misses)
system.cpu.dcache.ReadReq_accesses::total      1494942                       # number of ReadReq accesses(hits+misses)
system.cpu.dcache.ReadReq_miss_rate::.cpu.data     0.005824                       # miss rate for ReadReq accesses
system.cpu.dcache.ReadReq_miss_rate::total     0.005824                       # miss rate for ReadReq accesses
system.cpu.dcache.ReadReq_avg_miss_latency::.cpu.data 51545.428440                       # average ReadReq miss latency
system.cpu.dcache.ReadReq_avg_miss_latency::total 51545.428440                       # average ReadReq miss latency
system.cpu.dcache.ReadReq_mshr_hits::.cpu.data         5425                       # number of ReadReq MSHR hits
system.cpu.dcache.ReadReq_mshr_hits::total         5425                       # number of ReadReq MSHR hits
system.cpu.dcache.ReadReq_mshr_misses::.cpu.data         3281                       # number of ReadReq MSHR misses
system.cpu.dcache.ReadReq_mshr_misses::total         3281                       # number of ReadReq MSHR misses
system.cpu.dcache.ReadReq_mshr_miss_latency::.cpu.data    156043500                       # number of ReadReq MSHR miss cycles
system.cpu.dcache.ReadReq_mshr_miss_latency::total    156043500                       # number of ReadReq MSHR miss cycles
system.cpu.dcache.ReadReq_mshr_miss_rate::.cpu.data     0.002195                       # mshr miss rate for ReadReq accesses
system.cpu.dcache.ReadReq_mshr_miss_rate::total     0.002195                       # mshr miss rate for ReadReq accesses
system.cpu.dcache.ReadReq_avg_mshr_miss_latency::.cpu.data 47559.737885                       # average ReadReq mshr miss latency
system.cpu.dcache.ReadReq_avg_mshr_miss_latency::total 47559.737885                       # average ReadReq mshr miss latency
system.cpu.dcache.WriteReq_hits::.cpu.data       761613                       # number of WriteReq hits
system.cpu.dcache.WriteReq_hits::total         761613                       # number of WriteReq hits
system.cpu.dcache.WriteReq_misses::.cpu.data        80804                       # number of WriteReq misses
system.cpu.dcache.WriteReq_misses::total        80804                       # number of WriteReq misses
system.cpu.dcache.WriteReq_miss_latency::.cpu.data   5494499763                       # number of WriteReq miss cycles
system.cpu.dcache.WriteReq_miss_latency::total   5494499763                       # number of WriteReq miss cycles
system.cpu.dcache.WriteReq_accesses::.cpu.data       842417                       # number of WriteReq accesses(hits+misses)
system.cpu.dcache.WriteReq_accesses::total       842417                       # number of WriteReq accesses(hits+misses)
system.cpu.dcache.WriteReq_miss_rate::.cpu.data     0.095919                       # miss rate for WriteReq accesses
system.cpu.dcache.WriteReq_miss_rate::total     0.095919                       # miss rate for WriteReq accesses
system.cpu.dcache.WriteReq_avg_miss_latency::.cpu.data 67997.868459                       # average WriteReq miss latency
system.cpu.dcache.WriteReq_avg_miss_latency::total 67997.868459                       # average WriteReq miss latency
system.cpu.dcache.WriteReq_mshr_hits::.cpu.data        70471                       # number of WriteReq MSHR hits
system.cpu.dcache.WriteReq_mshr_hits::total        70471                       # number of WriteReq MSHR hits
system.cpu.dcache.WriteReq_mshr_misses::.cpu.data        10333                       # number of WriteReq MSHR misses
system.cpu.dcache.WriteReq_mshr_misses::total        10333                       # number of WriteReq MSHR misses
system.cpu.dcache.WriteReq_mshr_miss_latency::.cpu.data    778854978                       # number of WriteReq MSHR miss cycles
system.cpu.dcache.WriteReq_mshr_miss_latency::total    778854978                       # number of WriteReq MSHR miss cycles
system.cpu.dcache.WriteReq_mshr_miss_rate::.cpu.data     0.012266                       # mshr miss rate for WriteReq accesses
system.cpu.dcache.WriteReq_mshr_miss_rate::total     0.012266                       # mshr miss rate for WriteReq accesses
system.cpu.dcache.WriteReq_avg_mshr_miss_latency::.cpu.data 75375.493855                       # average WriteReq mshr miss latency
system.cpu.dcache.WriteReq_avg_mshr_miss_latency::total 75375.493855                       # average WriteReq mshr miss latency
system.cpu.dcache.SoftPFReq_hits::.cpu.data          535                       # number of SoftPFReq hits
system.cpu.dcache.SoftPFReq_hits::total           535                       # number of SoftPFReq hits
system.cpu.dcache.SoftPFReq_misses::.cpu.data            4                       # number of SoftPFReq misses
system.cpu.dcache.SoftPFReq_misses::total            4                       # number of SoftPFReq misses
system.cpu.dcache.SoftPFReq_accesses::.cpu.data          539                       # number of SoftPFReq accesses(hits+misses)
system.cpu.dcache.SoftPFReq_accesses::total          539                       # number of SoftPFReq accesses(hits+misses)
system.cpu.dcache.SoftPFReq_miss_rate::.cpu.data     0.007421                       # miss rate for SoftPFReq accesses
system.cpu.dcache.SoftPFReq_miss_rate::total     0.007421                       # miss rate for SoftPFReq accesses
system.cpu.dcache.SoftPFReq_mshr_misses::.cpu.data            3                       # number of SoftPFReq MSHR misses
system.cpu.dcache.SoftPFReq_mshr_misses::total            3                       # number of SoftPFReq MSHR misses
system.cpu.dcache.SoftPFReq_mshr_miss_latency::.cpu.data       297500                       # number of SoftPFReq MSHR miss cycles
system.cpu.dcache.SoftPFReq_mshr_miss_latency::total       297500                       # number of SoftPFReq MSHR miss cycles
system.cpu.dcache.SoftPFReq_mshr_miss_rate::.cpu.data     0.005566                       # mshr miss rate for SoftPFReq accesses
system.cpu.dcache.SoftPFReq_mshr_miss_rate::total     0.005566                       # mshr miss rate for SoftPFReq accesses
system.cpu.dcache.SoftPFReq_avg_mshr_miss_latency::.cpu.data 99166.666667                       # average SoftPFReq mshr miss latency
system.cpu.dcache.SoftPFReq_avg_mshr_miss_latency::total 99166.666667                       # average SoftPFReq mshr miss latency
system.cpu.dcache.WriteLineReq_misses::.cpu.data          739                       # number of WriteLineReq misses
system.cpu.dcache.WriteLineReq_misses::total          739                       # number of WriteLineReq misses
system.cpu.dcache.WriteLineReq_miss_latency::.cpu.data     23767445                       # number of WriteLineReq miss cycles
system.cpu.dcache.WriteLineReq_miss_latency::total     23767445                       # number of WriteLineReq miss cycles
system.cpu.dcache.WriteLineReq_accesses::.cpu.data          739                       # number of WriteLineReq accesses(hits+misses)
system.cpu.dcache.WriteLineReq_accesses::total          739                       # number of WriteLineReq accesses(hits+misses)
system.cpu.dcache.WriteLineReq_miss_rate::.cpu.data            1                       # miss rate for WriteLineReq accesses
system.cpu.dcache.WriteLineReq_miss_rate::total            1                       # miss rate for WriteLineReq accesses
system.cpu.dcache.WriteLineReq_avg_miss_latency::.cpu.data 32161.630582                       # average WriteLineReq miss latency
system.cpu.dcache.WriteLineReq_avg_miss_latency::total 32161.630582                       # average WriteLineReq miss latency
system.cpu.dcache.WriteLineReq_mshr_misses::.cpu.data          739                       # number of WriteLineReq MSHR misses
system.cpu.dcache.WriteLineReq_mshr_misses::total          739                       # number of WriteLineReq MSHR misses
system.cpu.dcache.WriteLineReq_mshr_miss_latency::.cpu.data     23028445                       # number of WriteLineReq MSHR miss cycles
system.cpu.dcache.WriteLineReq_mshr_miss_latency::total     23028445                       # number of WriteLineReq MSHR miss cycles
system.cpu.dcache.WriteLineReq_mshr_miss_rate::.cpu.data            1                       # mshr miss rate for WriteLineReq accesses
system.cpu.dcache.WriteLineReq_mshr_miss_rate::total            1                       # mshr miss rate for WriteLineReq accesses
system.cpu.dcache.WriteLineReq_avg_mshr_miss_latency::.cpu.data 31161.630582                       # average WriteLineReq mshr miss latency
system.cpu.dcache.WriteLineReq_avg_mshr_miss_latency::total 31161.630582                       # average WriteLineReq mshr miss latency
system.cpu.dcache.LoadLockedReq_hits::.cpu.data          110                       # number of LoadLockedReq hits
system.cpu.dcache.LoadLockedReq_hits::total          110                       # number of LoadLockedReq hits
system.cpu.dcache.LoadLockedReq_misses::.cpu.data            3                       # number of LoadLockedReq misses
system.cpu.dcache.LoadLockedReq_misses::total            3                       # number of LoadLockedReq misses
system.cpu.dcache.LoadLockedReq_miss_latency::.cpu.data       202000                       # number of LoadLockedReq miss cycles
system.cpu.dcache.LoadLockedReq_miss_latency::total       202000                       # number of LoadLockedReq miss cycles
system.cpu.dcache.LoadLockedReq_accesses::.cpu.data          113                       # number of LoadLockedReq accesses(hits+misses)
system.cpu.dcache.LoadLockedReq_accesses::total          113                       # number of LoadLockedReq accesses(hits+misses)
system.cpu.dcache.LoadLockedReq_miss_rate::.cpu.data     0.026549                       # miss rate for LoadLockedReq accesses
system.cpu.dcache.LoadLockedReq_miss_rate::total     0.026549                       # miss rate for LoadLockedReq accesses
system.cpu.dcache.LoadLockedReq_avg_miss_latency::.cpu.data 67333.333333                       # average LoadLockedReq miss latency
system.cpu.dcache.LoadLockedReq_avg_miss_latency::total 67333.333333                       # average LoadLockedReq miss latency
system.cpu.dcache.LoadLockedReq_mshr_hits::.cpu.data            1                       # number of LoadLockedReq MSHR hits
system.cpu.dcache.LoadLockedReq_mshr_hits::total            1                       # number of LoadLockedReq MSHR hits
system.cpu.dcache.LoadLockedReq_mshr_misses::.cpu.data            2                       # number of LoadLockedReq MSHR misses
system.cpu.dcache.LoadLockedReq_mshr_misses::total            2                       # number of LoadLockedReq MSHR misses
system.cpu.dcache.LoadLockedReq_mshr_miss_latency::.cpu.data        99500                       # number of LoadLockedReq MSHR miss cycles
system.cpu.dcache.LoadLockedReq_mshr_miss_latency::total        99500                       # number of LoadLockedReq MSHR miss cycles
system.cpu.dcache.LoadLockedReq_mshr_miss_rate::.cpu.data     0.017699                       # mshr miss rate for LoadLockedReq accesses
system.cpu.dcache.LoadLockedReq_mshr_miss_rate::total     0.017699                       # mshr miss rate for LoadLockedReq accesses
system.cpu.dcache.LoadLockedReq_avg_mshr_miss_latency::.cpu.data        49750                       # average LoadLockedReq mshr miss latency
system.cpu.dcache.LoadLockedReq_avg_mshr_miss_latency::total        49750                       # average LoadLockedReq mshr miss latency
system.cpu.dcache.StoreCondReq_hits::.cpu.data           92                       # number of StoreCondReq hits
system.cpu.dcache.StoreCondReq_hits::total           92                       # number of StoreCondReq hits
system.cpu.dcache.StoreCondReq_accesses::.cpu.data           92                       # number of StoreCondReq accesses(hits+misses)
system.cpu.dcache.StoreCondReq_accesses::total           92                       # number of StoreCondReq accesses(hits+misses)
system.cpu.dcache.power_state.pwrStateResidencyTicks::UNDEFINED   2964706000                       # Cumulative time (in ticks) in various power states
system.cpu.dcache.tags.tagsinuse           989.562215                       # Cycle average of tags in use
system.cpu.dcache.tags.total_refs             2262944                       # Total number of references to valid blocks.
system.cpu.dcache.tags.sampled_refs             14358                       # Sample count of references to valid blocks.
system.cpu.dcache.tags.avg_refs            157.608581                       # Average number of references to valid blocks.
system.cpu.dcache.tags.warmup_cycle            176500                       # Cycle when the warmup percentage was hit.
system.cpu.dcache.tags.occ_blocks::.cpu.data   989.562215                       # Average occupied blocks per requestor
system.cpu.dcache.tags.occ_percent::.cpu.data     0.966369                       # Average percentage of cache occupancy
system.cpu.dcache.tags.occ_percent::total     0.966369                       # Average percentage of cache occupancy
system.cpu.dcache.tags.occ_task_id_blocks::1024         1024                       # Occupied blocks per task id
system.cpu.dcache.tags.age_task_id_blocks_1024::0          124                       # Occupied blocks per task id
system.cpu.dcache.tags.age_task_id_blocks_1024::1          712                       # Occupied blocks per task id
system.cpu.dcache.tags.age_task_id_blocks_1024::2          178                       # Occupied blocks per task id
system.cpu.dcache.tags.age_task_id_blocks_1024::3           10                       # Occupied blocks per task id
system.cpu.dcache.tags.occ_task_id_percent::1024            1                       # Percentage of cache occupancy per task id
system.cpu.dcache.tags.tag_accesses           4692042                       # Number of tag accesses
system.cpu.dcache.tags.data_accesses          4692042                       # Number of data accesses
system.cpu.dcache.tags.power_state.pwrStateResidencyTicks::UNDEFINED   2964706000                       # Cumulative time (in ticks) in various power states
system.cpu.power_state.pwrStateResidencyTicks::ON   2964706000                       # Cumulative time (in ticks) in various power states

---------- End Simulation Statistics   ----------
