
---------- Begin Simulation Statistics ----------
final_tick                                   59026500                       # Number of ticks from beginning of simulation (restored from checkpoints and never reset)
host_inst_rate                                  31242                       # Simulator instruction rate (inst/s)
host_mem_usage                                 867924                       # Number of bytes of host memory used
host_op_rate                                    37763                       # Simulator op (including micro ops) rate (op/s)
host_seconds                                     0.75                       # Real time elapsed on the host
host_tick_rate                               78345984                       # Simulator tick rate (ticks/s)
sim_freq                                 1000000000000                       # Frequency of simulated ticks
sim_insts                                       23532                       # Number of instructions simulated
sim_ops                                         28450                       # Number of ops (including micro ops) simulated
sim_seconds                                  0.000059                       # Number of seconds simulated
sim_ticks                                    59026500                       # Number of ticks simulated
system.cpu.branchPred.BTBCorrect                    0                       # Number of correct BTB predictions (this stat may not work properly.
system.cpu.branchPred.BTBHitPct             65.051612                       # BTB Hit Percentage
system.cpu.branchPred.BTBHits                    3088                       # Number of BTB hits
system.cpu.branchPred.BTBLookups                 4747                       # Number of BTB lookups
system.cpu.branchPred.RASInCorrect                  5                       # Number of incorrect RAS predictions.
system.cpu.branchPred.condIncorrect              1357                       # Number of conditional branches incorrect
system.cpu.branchPred.condPredicted              7825                       # Number of conditional branches predicted
system.cpu.branchPred.indirectHits                 37                       # Number of indirect target hits.
system.cpu.branchPred.indirectLookups             408                       # Number of indirect predictor lookups.
system.cpu.branchPred.indirectMisses              371                       # Number of indirect misses.
system.cpu.branchPred.lookups                   11018                       # Number of BP lookups
system.cpu.branchPred.usedRAS                     943                       # Number of times the RAS was used to get a target.
system.cpu.branchPredindirectMispredicted          107                       # Number of mispredicted indirect branches.
system.cpu.cc_regfile_reads                      8712                       # number of cc regfile reads
system.cpu.cc_regfile_writes                     8568                       # number of cc regfile writes
system.cpu.commit.amos                              0                       # Number of atomic instructions committed
system.cpu.commit.branchMispredicts               909                       # The number of times a branch was mispredicted
system.cpu.commit.branches                       5605                       # Number of branches committed
system.cpu.commit.bw_lim_events                  1097                       # number cycles where commit BW limit reached
system.cpu.commit.commitNonSpecStalls              54                       # The number of times commit has been forced to stall to communicate backwards
system.cpu.commit.commitSquashedInsts           14182                       # The number of squashed insts skipped by commit
system.cpu.commit.committedInsts                23588                       # Number of instructions committed
system.cpu.commit.committedOps                  28506                       # Number of ops (including micro ops) committed
system.cpu.commit.committed_per_cycle::samples        42497                       # Number of insts commited each cycle
system.cpu.commit.committed_per_cycle::mean     0.670777                       # Number of insts commited each cycle
system.cpu.commit.committed_per_cycle::stdev     1.696213                       # Number of insts commited each cycle
system.cpu.commit.committed_per_cycle::underflows            0      0.00%      0.00% # Number of insts commited each cycle
system.cpu.commit.committed_per_cycle::0        33215     78.16%     78.16% # Number of insts commited each cycle
system.cpu.commit.committed_per_cycle::1         3498      8.23%     86.39% # Number of insts commited each cycle
system.cpu.commit.committed_per_cycle::2         1879      4.42%     90.81% # Number of insts commited each cycle
system.cpu.commit.committed_per_cycle::3          905      2.13%     92.94% # Number of insts commited each cycle
system.cpu.commit.committed_per_cycle::4          660      1.55%     94.49% # Number of insts commited each cycle
system.cpu.commit.committed_per_cycle::5          560      1.32%     95.81% # Number of insts commited each cycle
system.cpu.commit.committed_per_cycle::6          462      1.09%     96.90% # Number of insts commited each cycle
system.cpu.commit.committed_per_cycle::7          221      0.52%     97.42% # Number of insts commited each cycle
system.cpu.commit.committed_per_cycle::8         1097      2.58%    100.00% # Number of insts commited each cycle
system.cpu.commit.committed_per_cycle::overflows            0      0.00%    100.00% # Number of insts commited each cycle
system.cpu.commit.committed_per_cycle::min_value            0                       # Number of insts commited each cycle
system.cpu.commit.committed_per_cycle::max_value            8                       # Number of insts commited each cycle
system.cpu.commit.committed_per_cycle::total        42497                       # Number of insts commited each cycle
system.cpu.commit.fp_insts                          0                       # Number of committed floating point instructions.
system.cpu.commit.function_calls                  490                       # Number of function calls committed.
system.cpu.commit.int_insts                     25886                       # Number of committed integer instructions.
system.cpu.commit.loads                          4020                       # Number of loads committed
system.cpu.commit.membars                          36                       # Number of memory barriers committed
system.cpu.commit.op_class_0::No_OpClass            7      0.02%      0.02% # Class of committed instruction
system.cpu.commit.op_class_0::IntAlu            19666     68.99%     69.01% # Class of committed instruction
system.cpu.commit.op_class_0::IntMult              42      0.15%     69.16% # Class of committed instruction
system.cpu.commit.op_class_0::IntDiv                3      0.01%     69.17% # Class of committed instruction
system.cpu.commit.op_class_0::FloatAdd              0      0.00%     69.17% # Class of committed instruction
system.cpu.commit.op_class_0::FloatCmp              0      0.00%     69.17% # Class of committed instruction
system.cpu.commit.op_class_0::FloatCvt              0      0.00%     69.17% # Class of committed instruction
system.cpu.commit.op_class_0::FloatMult             0      0.00%     69.17% # Class of committed instruction
system.cpu.commit.op_class_0::FloatMultAcc            0      0.00%     69.17% # Class of committed instruction
system.cpu.commit.op_class_0::FloatDiv              0      0.00%     69.17% # Class of committed instruction
system.cpu.commit.op_class_0::FloatMisc             0      0.00%     69.17% # Class of committed instruction
system.cpu.commit.op_class_0::FloatSqrt             0      0.00%     69.17% # Class of committed instruction
system.cpu.commit.op_class_0::SimdAdd              26      0.09%     69.26% # Class of committed instruction
system.cpu.commit.op_class_0::SimdAddAcc            0      0.00%     69.26% # Class of committed instruction
system.cpu.commit.op_class_0::SimdAlu              26      0.09%     69.35% # Class of committed instruction
system.cpu.commit.op_class_0::SimdCmp              28      0.10%     69.45% # Class of committed instruction
system.cpu.commit.op_class_0::SimdCvt               0      0.00%     69.45% # Class of committed instruction
system.cpu.commit.op_class_0::SimdMisc             30      0.11%     69.56% # Class of committed instruction
system.cpu.commit.op_class_0::SimdMult              0      0.00%     69.56% # Class of committed instruction
system.cpu.commit.op_class_0::SimdMultAcc            0      0.00%     69.56% # Class of committed instruction
system.cpu.commit.op_class_0::SimdShift             0      0.00%     69.56% # Class of committed instruction
system.cpu.commit.op_class_0::SimdShiftAcc            0      0.00%     69.56% # Class of committed instruction
system.cpu.commit.op_class_0::SimdDiv               0      0.00%     69.56% # Class of committed instruction
system.cpu.commit.op_class_0::SimdSqrt              0      0.00%     69.56% # Class of committed instruction
system.cpu.commit.op_class_0::SimdFloatAdd            0      0.00%     69.56% # Class of committed instruction
system.cpu.commit.op_class_0::SimdFloatAlu            0      0.00%     69.56% # Class of committed instruction
system.cpu.commit.op_class_0::SimdFloatCmp            0      0.00%     69.56% # Class of committed instruction
system.cpu.commit.op_class_0::SimdFloatCvt            0      0.00%     69.56% # Class of committed instruction
system.cpu.commit.op_class_0::SimdFloatDiv            0      0.00%     69.56% # Class of committed instruction
system.cpu.commit.op_class_0::SimdFloatMisc            0      0.00%     69.56% # Class of committed instruction
system.cpu.commit.op_class_0::SimdFloatMult            0      0.00%     69.56% # Class of committed instruction
system.cpu.commit.op_class_0::SimdFloatMultAcc            0      0.00%     69.56% # Class of committed instruction
system.cpu.commit.op_class_0::SimdFloatSqrt            0      0.00%     69.56% # Class of committed instruction
system.cpu.commit.op_class_0::SimdReduceAdd            0      0.00%     69.56% # Class of committed instruction
system.cpu.commit.op_class_0::SimdReduceAlu            0      0.00%     69.56% # Class of committed instruction
system.cpu.commit.op_class_0::SimdReduceCmp            0      0.00%     69.56% # Class of committed instruction
system.cpu.commit.op_class_0::SimdFloatReduceAdd            0      0.00%     69.56% # Class of committed instruction
system.cpu.commit.op_class_0::SimdFloatReduceCmp            0      0.00%     69.56% # Class of committed instruction
system.cpu.commit.op_class_0::SimdAes               0      0.00%     69.56% # Class of committed instruction
system.cpu.commit.op_class_0::SimdAesMix            0      0.00%     69.56% # Class of committed instruction
system.cpu.commit.op_class_0::SimdSha1Hash            0      0.00%     69.56% # Class of committed instruction
system.cpu.commit.op_class_0::SimdSha1Hash2            0      0.00%     69.56% # Class of committed instruction
system.cpu.commit.op_class_0::SimdSha256Hash            0      0.00%     69.56% # Class of committed instruction
system.cpu.commit.op_class_0::SimdSha256Hash2            0      0.00%     69.56% # Class of committed instruction
system.cpu.commit.op_class_0::SimdShaSigma2            0      0.00%     69.56% # Class of committed instruction
system.cpu.commit.op_class_0::SimdShaSigma3            0      0.00%     69.56% # Class of committed instruction
system.cpu.commit.op_class_0::SimdPredAlu            0      0.00%     69.56% # Class of committed instruction
system.cpu.commit.op_class_0::MemRead            4020     14.10%     83.66% # Class of committed instruction
system.cpu.commit.op_class_0::MemWrite           4658     16.34%    100.00% # Class of committed instruction
system.cpu.commit.op_class_0::FloatMemRead            0      0.00%    100.00% # Class of committed instruction
system.cpu.commit.op_class_0::FloatMemWrite            0      0.00%    100.00% # Class of committed instruction
system.cpu.commit.op_class_0::IprAccess             0      0.00%    100.00% # Class of committed instruction
system.cpu.commit.op_class_0::InstPrefetch            0      0.00%    100.00% # Class of committed instruction
system.cpu.commit.op_class_0::total             28506                       # Class of committed instruction
system.cpu.commit.refs                           8678                       # Number of memory references committed
system.cpu.commit.swp_count                         0                       # Number of s/w prefetches committed
system.cpu.commit.vec_insts                       413                       # Number of committed Vector instructions.
system.cpu.committedInsts                       23532                       # Number of Instructions Simulated
system.cpu.committedOps                         28450                       # Number of Ops (including micro ops) Simulated
system.cpu.cpi                               5.016743                       # CPI: Cycles Per Instruction
system.cpu.cpi_total                         5.016743                       # CPI: Total CPI of All Threads
system.cpu.decode.BlockedCycles                 12214                       # Number of cycles decode is blocked
system.cpu.decode.BranchMispred                   453                       # Number of times decode detected a branch misprediction
system.cpu.decode.BranchResolved                 3327                       # Number of times decode resolved a branch
system.cpu.decode.DecodedInsts                  48234                       # Number of instructions handled by decode
system.cpu.decode.IdleCycles                    23026                       # Number of cycles decode is idle
system.cpu.decode.RunCycles                      7957                       # Number of cycles decode is running
system.cpu.decode.SquashCycles                    943                       # Number of cycles decode is squashing
system.cpu.decode.SquashedInsts                  1522                       # Number of squashed instructions handled by decode
system.cpu.decode.UnblockCycles                   718                       # Number of cycles decode is unblocking
system.cpu.dtb.accesses                             0                       # DTB accesses
system.cpu.dtb.align_faults                         0                       # Number of TLB faults due to alignment restrictions
system.cpu.dtb.domain_faults                        0                       # Number of TLB faults due to domain restrictions
system.cpu.dtb.flush_entries                        0                       # Number of entries that have been flushed from TLB
system.cpu.dtb.flush_tlb                            0                       # Number of times complete TLB was flushed
system.cpu.dtb.flush_tlb_asid                       0                       # Number of times TLB was flushed by ASID
system.cpu.dtb.flush_tlb_mva                        0                       # Number of times TLB was flushed by MVA
system.cpu.dtb.flush_tlb_mva_asid                   0                       # Number of times TLB was flushed by MVA & ASID
system.cpu.dtb.hits                                 0                       # DTB hits
system.cpu.dtb.inst_accesses                        0                       # ITB inst accesses
system.cpu.dtb.inst_hits                            0                       # ITB inst hits
system.cpu.dtb.inst_misses                          0                       # ITB inst misses
system.cpu.dtb.misses                               0                       # DTB misses
system.cpu.dtb.perms_faults                         0                       # Number of TLB faults due to permissions restrictions
system.cpu.dtb.prefetch_faults                      0                       # Number of TLB faults due to prefetch
system.cpu.dtb.read_accesses                        0                       # DTB read accesses
system.cpu.dtb.read_hits                            0                       # DTB read hits
system.cpu.dtb.read_misses                          0                       # DTB read misses
system.cpu.dtb.stage2_mmu.stage2_tlb.accesses            0                       # DTB accesses
system.cpu.dtb.stage2_mmu.stage2_tlb.align_faults            0                       # Number of TLB faults due to alignment restrictions
system.cpu.dtb.stage2_mmu.stage2_tlb.domain_faults            0                       # Number of TLB faults due to domain restrictions
system.cpu.dtb.stage2_mmu.stage2_tlb.flush_entries            0                       # Number of entries that have been flushed from TLB
system.cpu.dtb.stage2_mmu.stage2_tlb.flush_tlb            0                       # Number of times complete TLB was flushed
system.cpu.dtb.stage2_mmu.stage2_tlb.flush_tlb_asid            0                       # Number of times TLB was flushed by ASID
system.cpu.dtb.stage2_mmu.stage2_tlb.flush_tlb_mva            0                       # Number of times TLB was flushed by MVA
system.cpu.dtb.stage2_mmu.stage2_tlb.flush_tlb_mva_asid            0                       # Number of times TLB was flushed by MVA & ASID
system.cpu.dtb.stage2_mmu.stage2_tlb.hits            0                       # DTB hits
system.cpu.dtb.stage2_mmu.stage2_tlb.inst_accesses            0                       # ITB inst accesses
system.cpu.dtb.stage2_mmu.stage2_tlb.inst_hits            0                       # ITB inst hits
system.cpu.dtb.stage2_mmu.stage2_tlb.inst_misses            0                       # ITB inst misses
system.cpu.dtb.stage2_mmu.stage2_tlb.misses            0                       # DTB misses
system.cpu.dtb.stage2_mmu.stage2_tlb.perms_faults            0                       # Number of TLB faults due to permissions restrictions
system.cpu.dtb.stage2_mmu.stage2_tlb.prefetch_faults            0                       # Number of TLB faults due to prefetch
system.cpu.dtb.stage2_mmu.stage2_tlb.read_accesses            0                       # DTB read accesses
system.cpu.dtb.stage2_mmu.stage2_tlb.read_hits            0                       # DTB read hits
system.cpu.dtb.stage2_mmu.stage2_tlb.read_misses            0                       # DTB read misses
system.cpu.dtb.stage2_mmu.stage2_tlb.walker.walkRequestOrigin_Requested::Data            0                       # Table walker requests started/completed, data/inst
system.cpu.dtb.stage2_mmu.stage2_tlb.walker.walkRequestOrigin_Requested::Inst            0                       # Table walker requests started/completed, data/inst
system.cpu.dtb.stage2_mmu.stage2_tlb.walker.walkRequestOrigin_Requested::total            0                       # Table walker requests started/completed, data/inst
system.cpu.dtb.stage2_mmu.stage2_tlb.walker.walkRequestOrigin_Completed::Data            0                       # Table walker requests started/completed, data/inst
system.cpu.dtb.stage2_mmu.stage2_tlb.walker.walkRequestOrigin_Completed::Inst            0                       # Table walker requests started/completed, data/inst
system.cpu.dtb.stage2_mmu.stage2_tlb.walker.walkRequestOrigin_Completed::total            0                       # Table walker requests started/completed, data/inst
system.cpu.dtb.stage2_mmu.stage2_tlb.walker.walkRequestOrigin::total            0                       # Table walker requests started/completed, data/inst
system.cpu.dtb.stage2_mmu.stage2_tlb.walker.walks            0                       # Table walker walks requested
system.cpu.dtb.stage2_mmu.stage2_tlb.write_accesses            0                       # DTB write accesses
system.cpu.dtb.stage2_mmu.stage2_tlb.write_hits            0                       # DTB write hits
system.cpu.dtb.stage2_mmu.stage2_tlb.write_misses            0                       # DTB write misses
system.cpu.dtb.walker.walkRequestOrigin_Requested::Data            0                       # Table walker requests started/completed, data/inst
system.cpu.dtb.walker.walkRequestOrigin_Requested::Inst            0                       # Table walker requests started/completed, data/inst
system.cpu.dtb.walker.walkRequestOrigin_Requested::total            0                       # Table walker requests started/completed, data/inst
system.cpu.dtb.walker.walkRequestOrigin_Completed::Data            0                       # Table walker requests started/completed, data/inst
system.cpu.dtb.walker.walkRequestOrigin_Completed::Inst            0                       # Table walker requests started/completed, data/inst
system.cpu.dtb.walker.walkRequestOrigin_Completed::total            0                       # Table walker requests started/completed, data/inst
system.cpu.dtb.walker.walkRequestOrigin::total            0                       # Table walker requests started/completed, data/inst
system.cpu.dtb.walker.walks                         0                       # Table walker walks requested
system.cpu.dtb.write_accesses                       0                       # DTB write accesses
system.cpu.dtb.write_hits                           0                       # DTB write hits
system.cpu.dtb.write_misses                         0                       # DTB write misses
system.cpu.fetch.Branches                       11018                       # Number of branches that fetch encountered
system.cpu.fetch.CacheLines                      6685                       # Number of cache lines fetched
system.cpu.fetch.Cycles                         16434                       # Number of cycles fetch has run and was not squashing or blocked
system.cpu.fetch.IcacheSquashes                   888                       # Number of outstanding Icache misses that were squashed
system.cpu.fetch.IcacheWaitRetryStallCycles           85                       # Number of stall cycles due to full MSHR
system.cpu.fetch.Insts                          46951                       # Number of instructions fetch has processed
system.cpu.fetch.MiscStallCycles                    7                       # Number of cycles fetch has spent waiting on interrupts, or bad addresses, or out of MSHRs
system.cpu.fetch.SquashCycles                    2782                       # Number of cycles fetch has spent squashing
system.cpu.fetch.branchRate                  0.093330                       # Number of branch fetches per cycle
system.cpu.fetch.icacheStallCycles              26941                       # Number of cycles fetch is stalled on an Icache miss
system.cpu.fetch.predictedBranches               4068                       # Number of branches that fetch has predicted taken
system.cpu.fetch.rate                        0.397708                       # Number of inst fetches per cycle
system.cpu.fetch.rateDist::samples              44858                       # Number of instructions fetched each cycle (Total)
system.cpu.fetch.rateDist::mean              1.245062                       # Number of instructions fetched each cycle (Total)
system.cpu.fetch.rateDist::stdev             2.608952                       # Number of instructions fetched each cycle (Total)
system.cpu.fetch.rateDist::underflows               0      0.00%      0.00% # Number of instructions fetched each cycle (Total)
system.cpu.fetch.rateDist::0                    34649     77.24%     77.24% # Number of instructions fetched each cycle (Total)
system.cpu.fetch.rateDist::1                     1070      2.39%     79.63% # Number of instructions fetched each cycle (Total)
system.cpu.fetch.rateDist::2                     1091      2.43%     82.06% # Number of instructions fetched each cycle (Total)
system.cpu.fetch.rateDist::3                      672      1.50%     83.56% # Number of instructions fetched each cycle (Total)
system.cpu.fetch.rateDist::4                      996      2.22%     85.78% # Number of instructions fetched each cycle (Total)
system.cpu.fetch.rateDist::5                      644      1.44%     87.21% # Number of instructions fetched each cycle (Total)
system.cpu.fetch.rateDist::6                      938      2.09%     89.30% # Number of instructions fetched each cycle (Total)
system.cpu.fetch.rateDist::7                      633      1.41%     90.72% # Number of instructions fetched each cycle (Total)
system.cpu.fetch.rateDist::8                     4165      9.28%    100.00% # Number of instructions fetched each cycle (Total)
system.cpu.fetch.rateDist::overflows                0      0.00%    100.00% # Number of instructions fetched each cycle (Total)
system.cpu.fetch.rateDist::min_value                0                       # Number of instructions fetched each cycle (Total)
system.cpu.fetch.rateDist::max_value                8                       # Number of instructions fetched each cycle (Total)
system.cpu.fetch.rateDist::total                44858                       # Number of instructions fetched each cycle (Total)
system.cpu.icache.prefetcher.num_hwpf_issued         1810                       # number of hwpf issued
system.cpu.icache.prefetcher.pfBufferHit           52                       # number of redundant prefetches already in prefetch queue
system.cpu.icache.prefetcher.pfIdentified         1939                       # number of prefetch candidates identified
system.cpu.icache.prefetcher.pfInCache              0                       # number of redundant prefetches already in cache/mshr dropped
system.cpu.icache.prefetcher.pfRemovedFull            0                       # number of prefetches dropped due to prefetch queue size
system.cpu.icache.prefetcher.pfSpanPage           844                       # number of prefetches that crossed the page
system.cpu.idleCycles                           73196                       # Total number of cycles that the CPU has spent unscheduled due to idling
system.cpu.iew.branchMispredicts                 1086                       # Number of branch mispredicts detected at execute
system.cpu.iew.exec_branches                     7028                       # Number of branches executed
system.cpu.iew.exec_nop                           114                       # number of nop insts executed
system.cpu.iew.exec_rate                     0.320938                       # Inst execution rate
system.cpu.iew.exec_refs                        11597                       # number of memory reference insts executed
system.cpu.iew.exec_stores                       5685                       # Number of stores executed
system.cpu.iew.exec_swp                             0                       # number of swp insts executed
system.cpu.iew.iewBlockCycles                    2225                       # Number of cycles IEW is blocking
system.cpu.iew.iewDispLoadInsts                  6348                       # Number of dispatched load instructions
system.cpu.iew.iewDispNonSpecInsts                 93                       # Number of dispatched non-speculative instructions
system.cpu.iew.iewDispSquashedInsts               211                       # Number of squashed instructions skipped by dispatch
system.cpu.iew.iewDispStoreInsts                 6778                       # Number of dispatched store instructions
system.cpu.iew.iewDispatchedInsts               42712                       # Number of instructions dispatched to IQ
system.cpu.iew.iewExecLoadInsts                  5912                       # Number of load instructions executed
system.cpu.iew.iewExecSquashedInsts              1248                       # Number of squashed instructions skipped in execute
system.cpu.iew.iewExecutedInsts                 37888                       # Number of executed instructions
system.cpu.iew.iewIQFullEvents                      9                       # Number of times the IQ has become full, causing a stall
system.cpu.iew.iewIdleCycles                        0                       # Number of cycles IEW is idle
system.cpu.iew.iewLSQFullEvents                   897                       # Number of times the LSQ has become full, causing a stall
system.cpu.iew.iewSquashCycles                    943                       # Number of cycles IEW is squashing
system.cpu.iew.iewUnblockCycles                   911                       # Number of cycles IEW is unblocking
system.cpu.iew.lsq.thread0.blockedLoads             0                       # Number of blocked loads due to partial load-store forwarding
system.cpu.iew.lsq.thread0.cacheBlocked            84                       # Number of times an access to memory failed due to the cache being blocked
system.cpu.iew.lsq.thread0.forwLoads               95                       # Number of loads that had data forwarded from stores
system.cpu.iew.lsq.thread0.ignoredResponses            5                       # Number of memory responses ignored because the instruction is squashed
system.cpu.iew.lsq.thread0.invAddrLoads             0                       # Number of loads ignored due to an invalid address
system.cpu.iew.lsq.thread0.invAddrSwpfs             0                       # Number of software prefetches ignored due to an invalid address
system.cpu.iew.lsq.thread0.memOrderViolation           19                       # Number of memory ordering violations
system.cpu.iew.lsq.thread0.rescheduledLoads           99                       # Number of loads that were rescheduled
system.cpu.iew.lsq.thread0.squashedLoads         2328                       # Number of loads squashed
system.cpu.iew.lsq.thread0.squashedStores         2120                       # Number of stores squashed
system.cpu.iew.memOrderViolationEvents             19                       # Number of memory order violations
system.cpu.iew.predictedNotTakenIncorrect          967                       # Number of branches that were predicted not taken incorrectly
system.cpu.iew.predictedTakenIncorrect            119                       # Number of branches that were predicted taken incorrectly
system.cpu.iew.wb_consumers                     31758                       # num instructions consuming a value
system.cpu.iew.wb_count                         36536                       # cumulative count of insts written-back
system.cpu.iew.wb_fanout                     0.566220                       # average fanout of values written-back
system.cpu.iew.wb_producers                     17982                       # num instructions producing a value
system.cpu.iew.wb_rate                       0.309485                       # insts written-back per cycle
system.cpu.iew.wb_sent                          37144                       # cumulative count of insts sent to commit
system.cpu.int_regfile_reads                    41908                       # number of integer regfile reads
system.cpu.int_regfile_writes                   25808                       # number of integer regfile writes
system.cpu.ipc                               0.199333                       # IPC: Instructions Per Cycle
system.cpu.ipc_total                         0.199333                       # IPC: Total IPC of All Threads
system.cpu.iq.FU_type_0::No_OpClass                 9      0.02%      0.02% # Type of FU issued
system.cpu.iq.FU_type_0::IntAlu                 26765     68.39%     68.41% # Type of FU issued
system.cpu.iq.FU_type_0::IntMult                   44      0.11%     68.53% # Type of FU issued
system.cpu.iq.FU_type_0::IntDiv                     4      0.01%     68.54% # Type of FU issued
system.cpu.iq.FU_type_0::FloatAdd                   0      0.00%     68.54% # Type of FU issued
system.cpu.iq.FU_type_0::FloatCmp                   0      0.00%     68.54% # Type of FU issued
system.cpu.iq.FU_type_0::FloatCvt                   0      0.00%     68.54% # Type of FU issued
system.cpu.iq.FU_type_0::FloatMult                  0      0.00%     68.54% # Type of FU issued
system.cpu.iq.FU_type_0::FloatMultAcc               0      0.00%     68.54% # Type of FU issued
system.cpu.iq.FU_type_0::FloatDiv                   0      0.00%     68.54% # Type of FU issued
system.cpu.iq.FU_type_0::FloatMisc                  0      0.00%     68.54% # Type of FU issued
system.cpu.iq.FU_type_0::FloatSqrt                  0      0.00%     68.54% # Type of FU issued
system.cpu.iq.FU_type_0::SimdAdd                   31      0.08%     68.61% # Type of FU issued
system.cpu.iq.FU_type_0::SimdAddAcc                 0      0.00%     68.61% # Type of FU issued
system.cpu.iq.FU_type_0::SimdAlu                   33      0.08%     68.70% # Type of FU issued
system.cpu.iq.FU_type_0::SimdCmp                   36      0.09%     68.79% # Type of FU issued
system.cpu.iq.FU_type_0::SimdCvt                    0      0.00%     68.79% # Type of FU issued
system.cpu.iq.FU_type_0::SimdMisc                  34      0.09%     68.88% # Type of FU issued
system.cpu.iq.FU_type_0::SimdMult                   0      0.00%     68.88% # Type of FU issued
system.cpu.iq.FU_type_0::SimdMultAcc                0      0.00%     68.88% # Type of FU issued
system.cpu.iq.FU_type_0::SimdShift                  0      0.00%     68.88% # Type of FU issued
system.cpu.iq.FU_type_0::SimdShiftAcc               0      0.00%     68.88% # Type of FU issued
system.cpu.iq.FU_type_0::SimdDiv                    0      0.00%     68.88% # Type of FU issued
system.cpu.iq.FU_type_0::SimdSqrt                   0      0.00%     68.88% # Type of FU issued
system.cpu.iq.FU_type_0::SimdFloatAdd               0      0.00%     68.88% # Type of FU issued
system.cpu.iq.FU_type_0::SimdFloatAlu               0      0.00%     68.88% # Type of FU issued
system.cpu.iq.FU_type_0::SimdFloatCmp               0      0.00%     68.88% # Type of FU issued
system.cpu.iq.FU_type_0::SimdFloatCvt               0      0.00%     68.88% # Type of FU issued
system.cpu.iq.FU_type_0::SimdFloatDiv               0      0.00%     68.88% # Type of FU issued
system.cpu.iq.FU_type_0::SimdFloatMisc              0      0.00%     68.88% # Type of FU issued
system.cpu.iq.FU_type_0::SimdFloatMult              0      0.00%     68.88% # Type of FU issued
system.cpu.iq.FU_type_0::SimdFloatMultAcc            0      0.00%     68.88% # Type of FU issued
system.cpu.iq.FU_type_0::SimdFloatSqrt              0      0.00%     68.88% # Type of FU issued
system.cpu.iq.FU_type_0::SimdReduceAdd              0      0.00%     68.88% # Type of FU issued
system.cpu.iq.FU_type_0::SimdReduceAlu              0      0.00%     68.88% # Type of FU issued
system.cpu.iq.FU_type_0::SimdReduceCmp              0      0.00%     68.88% # Type of FU issued
system.cpu.iq.FU_type_0::SimdFloatReduceAdd            0      0.00%     68.88% # Type of FU issued
system.cpu.iq.FU_type_0::SimdFloatReduceCmp            0      0.00%     68.88% # Type of FU issued
system.cpu.iq.FU_type_0::SimdAes                    0      0.00%     68.88% # Type of FU issued
system.cpu.iq.FU_type_0::SimdAesMix                 0      0.00%     68.88% # Type of FU issued
system.cpu.iq.FU_type_0::SimdSha1Hash               0      0.00%     68.88% # Type of FU issued
system.cpu.iq.FU_type_0::SimdSha1Hash2              0      0.00%     68.88% # Type of FU issued
system.cpu.iq.FU_type_0::SimdSha256Hash             0      0.00%     68.88% # Type of FU issued
system.cpu.iq.FU_type_0::SimdSha256Hash2            0      0.00%     68.88% # Type of FU issued
system.cpu.iq.FU_type_0::SimdShaSigma2              0      0.00%     68.88% # Type of FU issued
system.cpu.iq.FU_type_0::SimdShaSigma3              0      0.00%     68.88% # Type of FU issued
system.cpu.iq.FU_type_0::SimdPredAlu                0      0.00%     68.88% # Type of FU issued
system.cpu.iq.FU_type_0::MemRead                 6179     15.79%     84.67% # Type of FU issued
system.cpu.iq.FU_type_0::MemWrite                6001     15.33%    100.00% # Type of FU issued
system.cpu.iq.FU_type_0::FloatMemRead               0      0.00%    100.00% # Type of FU issued
system.cpu.iq.FU_type_0::FloatMemWrite              0      0.00%    100.00% # Type of FU issued
system.cpu.iq.FU_type_0::IprAccess                  0      0.00%    100.00% # Type of FU issued
system.cpu.iq.FU_type_0::InstPrefetch               0      0.00%    100.00% # Type of FU issued
system.cpu.iq.FU_type_0::total                  39136                       # Type of FU issued
system.cpu.iq.fp_alu_accesses                       0                       # Number of floating point alu accesses
system.cpu.iq.fp_inst_queue_reads                   0                       # Number of floating instruction queue reads
system.cpu.iq.fp_inst_queue_wakeup_accesses            0                       # Number of floating instruction queue wakeup accesses
system.cpu.iq.fp_inst_queue_writes                  0                       # Number of floating instruction queue writes
system.cpu.iq.fu_busy_cnt                         565                       # FU busy when requested
system.cpu.iq.fu_busy_rate                   0.014437                       # FU busy rate (busy events/executed inst)
system.cpu.iq.fu_full::No_OpClass                   0      0.00%      0.00% # attempts to use FU when none available
system.cpu.iq.fu_full::IntAlu                     188     33.27%     33.27% # attempts to use FU when none available
system.cpu.iq.fu_full::IntMult                      0      0.00%     33.27% # attempts to use FU when none available
system.cpu.iq.fu_full::IntDiv                       0      0.00%     33.27% # attempts to use FU when none available
system.cpu.iq.fu_full::FloatAdd                     0      0.00%     33.27% # attempts to use FU when none available
system.cpu.iq.fu_full::FloatCmp                     0      0.00%     33.27% # attempts to use FU when none available
system.cpu.iq.fu_full::FloatCvt                     0      0.00%     33.27% # attempts to use FU when none available
system.cpu.iq.fu_full::FloatMult                    0      0.00%     33.27% # attempts to use FU when none available
system.cpu.iq.fu_full::FloatMultAcc                 0      0.00%     33.27% # attempts to use FU when none available
system.cpu.iq.fu_full::FloatDiv                     0      0.00%     33.27% # attempts to use FU when none available
system.cpu.iq.fu_full::FloatMisc                    0      0.00%     33.27% # attempts to use FU when none available
system.cpu.iq.fu_full::FloatSqrt                    0      0.00%     33.27% # attempts to use FU when none available
system.cpu.iq.fu_full::SimdAdd                      0      0.00%     33.27% # attempts to use FU when none available
system.cpu.iq.fu_full::SimdAddAcc                   0      0.00%     33.27% # attempts to use FU when none available
system.cpu.iq.fu_full::SimdAlu                      1      0.18%     33.45% # attempts to use FU when none available
system.cpu.iq.fu_full::SimdCmp                      3      0.53%     33.98% # attempts to use FU when none available
system.cpu.iq.fu_full::SimdCvt                      0      0.00%     33.98% # attempts to use FU when none available
system.cpu.iq.fu_full::SimdMisc                     0      0.00%     33.98% # attempts to use FU when none available
system.cpu.iq.fu_full::SimdMult                     0      0.00%     33.98% # attempts to use FU when none available
system.cpu.iq.fu_full::SimdMultAcc                  0      0.00%     33.98% # attempts to use FU when none available
system.cpu.iq.fu_full::SimdShift                    0      0.00%     33.98% # attempts to use FU when none available
system.cpu.iq.fu_full::SimdShiftAcc                 0      0.00%     33.98% # attempts to use FU when none available
system.cpu.iq.fu_full::SimdDiv                      0      0.00%     33.98% # attempts to use FU when none available
system.cpu.iq.fu_full::SimdSqrt                     0      0.00%     33.98% # attempts to use FU when none available
system.cpu.iq.fu_full::SimdFloatAdd                 0      0.00%     33.98% # attempts to use FU when none available
system.cpu.iq.fu_full::SimdFloatAlu                 0      0.00%     33.98% # attempts to use FU when none available
system.cpu.iq.fu_full::SimdFloatCmp                 0      0.00%     33.98% # attempts to use FU when none available
system.cpu.iq.fu_full::SimdFloatCvt                 0      0.00%     33.98% # attempts to use FU when none available
system.cpu.iq.fu_full::SimdFloatDiv                 0      0.00%     33.98% # attempts to use FU when none available
system.cpu.iq.fu_full::SimdFloatMisc                0      0.00%     33.98% # attempts to use FU when none available
system.cpu.iq.fu_full::SimdFloatMult                0      0.00%     33.98% # attempts to use FU when none available
system.cpu.iq.fu_full::SimdFloatMultAcc             0      0.00%     33.98% # attempts to use FU when none available
system.cpu.iq.fu_full::SimdFloatSqrt                0      0.00%     33.98% # attempts to use FU when none available
system.cpu.iq.fu_full::SimdReduceAdd                0      0.00%     33.98% # attempts to use FU when none available
system.cpu.iq.fu_full::SimdReduceAlu                0      0.00%     33.98% # attempts to use FU when none available
system.cpu.iq.fu_full::SimdReduceCmp                0      0.00%     33.98% # attempts to use FU when none available
system.cpu.iq.fu_full::SimdFloatReduceAdd            0      0.00%     33.98% # attempts to use FU when none available
system.cpu.iq.fu_full::SimdFloatReduceCmp            0      0.00%     33.98% # attempts to use FU when none available
system.cpu.iq.fu_full::SimdAes                      0      0.00%     33.98% # attempts to use FU when none available
system.cpu.iq.fu_full::SimdAesMix                   0      0.00%     33.98% # attempts to use FU when none available
system.cpu.iq.fu_full::SimdSha1Hash                 0      0.00%     33.98% # attempts to use FU when none available
system.cpu.iq.fu_full::SimdSha1Hash2                0      0.00%     33.98% # attempts to use FU when none available
system.cpu.iq.fu_full::SimdSha256Hash               0      0.00%     33.98% # attempts to use FU when none available
system.cpu.iq.fu_full::SimdSha256Hash2              0      0.00%     33.98% # attempts to use FU when none available
system.cpu.iq.fu_full::SimdShaSigma2                0      0.00%     33.98% # attempts to use FU when none available
system.cpu.iq.fu_full::SimdShaSigma3                0      0.00%     33.98% # attempts to use FU when none available
system.cpu.iq.fu_full::SimdPredAlu                  0      0.00%     33.98% # attempts to use FU when none available
system.cpu.iq.fu_full::MemRead                    125     22.12%     56.11% # attempts to use FU when none available
system.cpu.iq.fu_full::MemWrite                   248     43.89%    100.00% # attempts to use FU when none available
system.cpu.iq.fu_full::FloatMemRead                 0      0.00%    100.00% # attempts to use FU when none available
system.cpu.iq.fu_full::FloatMemWrite                0      0.00%    100.00% # attempts to use FU when none available
system.cpu.iq.fu_full::IprAccess                    0      0.00%    100.00% # attempts to use FU when none available
system.cpu.iq.fu_full::InstPrefetch                 0      0.00%    100.00% # attempts to use FU when none available
system.cpu.iq.int_alu_accesses                  39012                       # Number of integer alu accesses
system.cpu.iq.int_inst_queue_reads             122479                       # Number of integer instruction queue reads
system.cpu.iq.int_inst_queue_wakeup_accesses        36005                       # Number of integer instruction queue wakeup accesses
system.cpu.iq.int_inst_queue_writes             55520                       # Number of integer instruction queue writes
system.cpu.iq.iqInstsAdded                      42505                       # Number of instructions added to the IQ (excludes non-spec)
system.cpu.iq.iqInstsIssued                     39136                       # Number of instructions issued
system.cpu.iq.iqNonSpecInstsAdded                  93                       # Number of non-speculative instructions added to the IQ
system.cpu.iq.iqSquashedInstsExamined           14147                       # Number of squashed instructions iterated over during squash; mainly for profiling
system.cpu.iq.iqSquashedInstsIssued               221                       # Number of squashed instructions issued
system.cpu.iq.iqSquashedNonSpecRemoved             39                       # Number of squashed non-spec instructions that were removed
system.cpu.iq.iqSquashedOperandsExamined         8876                       # Number of squashed operands that are examined and possibly removed from graph
system.cpu.iq.issued_per_cycle::samples         44858                       # Number of insts issued each cycle
system.cpu.iq.issued_per_cycle::mean         0.872442                       # Number of insts issued each cycle
system.cpu.iq.issued_per_cycle::stdev        1.722080                       # Number of insts issued each cycle
system.cpu.iq.issued_per_cycle::underflows            0      0.00%      0.00% # Number of insts issued each cycle
system.cpu.iq.issued_per_cycle::0               32225     71.84%     71.84% # Number of insts issued each cycle
system.cpu.iq.issued_per_cycle::1                3210      7.16%     78.99% # Number of insts issued each cycle
system.cpu.iq.issued_per_cycle::2                2711      6.04%     85.04% # Number of insts issued each cycle
system.cpu.iq.issued_per_cycle::3                2121      4.73%     89.77% # Number of insts issued each cycle
system.cpu.iq.issued_per_cycle::4                1663      3.71%     93.47% # Number of insts issued each cycle
system.cpu.iq.issued_per_cycle::5                1184      2.64%     96.11% # Number of insts issued each cycle
system.cpu.iq.issued_per_cycle::6                 974      2.17%     98.28% # Number of insts issued each cycle
system.cpu.iq.issued_per_cycle::7                 435      0.97%     99.25% # Number of insts issued each cycle
system.cpu.iq.issued_per_cycle::8                 335      0.75%    100.00% # Number of insts issued each cycle
system.cpu.iq.issued_per_cycle::overflows            0      0.00%    100.00% # Number of insts issued each cycle
system.cpu.iq.issued_per_cycle::min_value            0                       # Number of insts issued each cycle
system.cpu.iq.issued_per_cycle::max_value            8                       # Number of insts issued each cycle
system.cpu.iq.issued_per_cycle::total           44858                       # Number of insts issued each cycle
system.cpu.iq.rate                           0.331509                       # Inst issue rate
system.cpu.iq.vec_alu_accesses                    680                       # Number of vector alu accesses
system.cpu.iq.vec_inst_queue_reads               1437                       # Number of vector instruction queue reads
system.cpu.iq.vec_inst_queue_wakeup_accesses          531                       # Number of vector instruction queue wakeup accesses
system.cpu.iq.vec_inst_queue_writes              1241                       # Number of vector instruction queue writes
system.cpu.itb.accesses                             0                       # DTB accesses
system.cpu.itb.align_faults                         0                       # Number of TLB faults due to alignment restrictions
system.cpu.itb.domain_faults                        0                       # Number of TLB faults due to domain restrictions
system.cpu.itb.flush_entries                        0                       # Number of entries that have been flushed from TLB
system.cpu.itb.flush_tlb                            0                       # Number of times complete TLB was flushed
system.cpu.itb.flush_tlb_asid                       0                       # Number of times TLB was flushed by ASID
system.cpu.itb.flush_tlb_mva                        0                       # Number of times TLB was flushed by MVA
system.cpu.itb.flush_tlb_mva_asid                   0                       # Number of times TLB was flushed by MVA & ASID
system.cpu.itb.hits                                 0                       # DTB hits
system.cpu.itb.inst_accesses                        0                       # ITB inst accesses
system.cpu.itb.inst_hits                            0                       # ITB inst hits
system.cpu.itb.inst_misses                          0                       # ITB inst misses
system.cpu.itb.misses                               0                       # DTB misses
system.cpu.itb.perms_faults                         0                       # Number of TLB faults due to permissions restrictions
system.cpu.itb.prefetch_faults                      0                       # Number of TLB faults due to prefetch
system.cpu.itb.read_accesses                        0                       # DTB read accesses
system.cpu.itb.read_hits                            0                       # DTB read hits
system.cpu.itb.read_misses                          0                       # DTB read misses
system.cpu.itb.stage2_mmu.stage2_tlb.accesses            0                       # DTB accesses
system.cpu.itb.stage2_mmu.stage2_tlb.align_faults            0                       # Number of TLB faults due to alignment restrictions
system.cpu.itb.stage2_mmu.stage2_tlb.domain_faults            0                       # Number of TLB faults due to domain restrictions
system.cpu.itb.stage2_mmu.stage2_tlb.flush_entries            0                       # Number of entries that have been flushed from TLB
system.cpu.itb.stage2_mmu.stage2_tlb.flush_tlb            0                       # Number of times complete TLB was flushed
system.cpu.itb.stage2_mmu.stage2_tlb.flush_tlb_asid            0                       # Number of times TLB was flushed by ASID
system.cpu.itb.stage2_mmu.stage2_tlb.flush_tlb_mva            0                       # Number of times TLB was flushed by MVA
system.cpu.itb.stage2_mmu.stage2_tlb.flush_tlb_mva_asid            0                       # Number of times TLB was flushed by MVA & ASID
system.cpu.itb.stage2_mmu.stage2_tlb.hits            0                       # DTB hits
system.cpu.itb.stage2_mmu.stage2_tlb.inst_accesses            0                       # ITB inst accesses
system.cpu.itb.stage2_mmu.stage2_tlb.inst_hits            0                       # ITB inst hits
system.cpu.itb.stage2_mmu.stage2_tlb.inst_misses            0                       # ITB inst misses
system.cpu.itb.stage2_mmu.stage2_tlb.misses            0                       # DTB misses
system.cpu.itb.stage2_mmu.stage2_tlb.perms_faults            0                       # Number of TLB faults due to permissions restrictions
system.cpu.itb.stage2_mmu.stage2_tlb.prefetch_faults            0                       # Number of TLB faults due to prefetch
system.cpu.itb.stage2_mmu.stage2_tlb.read_accesses            0                       # DTB read accesses
system.cpu.itb.stage2_mmu.stage2_tlb.read_hits            0                       # DTB read hits
system.cpu.itb.stage2_mmu.stage2_tlb.read_misses            0                       # DTB read misses
system.cpu.itb.stage2_mmu.stage2_tlb.walker.walkRequestOrigin_Requested::Data            0                       # Table walker requests started/completed, data/inst
system.cpu.itb.stage2_mmu.stage2_tlb.walker.walkRequestOrigin_Requested::Inst            0                       # Table walker requests started/completed, data/inst
system.cpu.itb.stage2_mmu.stage2_tlb.walker.walkRequestOrigin_Requested::total            0                       # Table walker requests started/completed, data/inst
system.cpu.itb.stage2_mmu.stage2_tlb.walker.walkRequestOrigin_Completed::Data            0                       # Table walker requests started/completed, data/inst
system.cpu.itb.stage2_mmu.stage2_tlb.walker.walkRequestOrigin_Completed::Inst            0                       # Table walker requests started/completed, data/inst
system.cpu.itb.stage2_mmu.stage2_tlb.walker.walkRequestOrigin_Completed::total            0                       # Table walker requests started/completed, data/inst
system.cpu.itb.stage2_mmu.stage2_tlb.walker.walkRequestOrigin::total            0                       # Table walker requests started/completed, data/inst
system.cpu.itb.stage2_mmu.stage2_tlb.walker.walks            0                       # Table walker walks requested
system.cpu.itb.stage2_mmu.stage2_tlb.write_accesses            0                       # DTB write accesses
system.cpu.itb.stage2_mmu.stage2_tlb.write_hits            0                       # DTB write hits
system.cpu.itb.stage2_mmu.stage2_tlb.write_misses            0                       # DTB write misses
system.cpu.itb.walker.walkRequestOrigin_Requested::Data            0                       # Table walker requests started/completed, data/inst
system.cpu.itb.walker.walkRequestOrigin_Requested::Inst            0                       # Table walker requests started/completed, data/inst
system.cpu.itb.walker.walkRequestOrigin_Requested::total            0                       # Table walker requests started/completed, data/inst
system.cpu.itb.walker.walkRequestOrigin_Completed::Data            0                       # Table walker requests started/completed, data/inst
system.cpu.itb.walker.walkRequestOrigin_Completed::Inst            0                       # Table walker requests started/completed, data/inst
system.cpu.itb.walker.walkRequestOrigin_Completed::total            0                       # Table walker requests started/completed, data/inst
system.cpu.itb.walker.walkRequestOrigin::total            0                       # Table walker requests started/completed, data/inst
system.cpu.itb.walker.walks                         0                       # Table walker walks requested
system.cpu.itb.write_accesses                       0                       # DTB write accesses
system.cpu.itb.write_hits                           0                       # DTB write hits
system.cpu.itb.write_misses                         0                       # DTB write misses
system.cpu.memDep0.conflictingLoads                13                       # Number of conflicting loads.
system.cpu.memDep0.conflictingStores               35                       # Number of conflicting stores.
system.cpu.memDep0.insertedLoads                 6348                       # Number of loads inserted to the mem dependence unit.
system.cpu.memDep0.insertedStores                6778                       # Number of stores inserted to the mem dependence unit.
system.cpu.misc_regfile_reads                   29403                       # number of misc regfile reads
system.cpu.misc_regfile_writes                    145                       # number of misc regfile writes
system.cpu.numCycles                           118054                       # number of cpu cycles simulated
system.cpu.numWorkItemsCompleted                    0                       # number of work items this cpu completed
system.cpu.numWorkItemsStarted                      0                       # number of work items this cpu started
system.cpu.rename.BlockCycles                    3364                       # Number of cycles rename is blocking
system.cpu.rename.CommittedMaps                 26781                       # Number of HB maps that are committed
system.cpu.rename.IQFullEvents                    168                       # Number of times rename has blocked due to IQ full
system.cpu.rename.IdleCycles                    23859                       # Number of cycles rename is idle
system.cpu.rename.LQFullEvents                      2                       # Number of times rename has blocked due to LQ full
system.cpu.rename.ROBFullEvents                    11                       # Number of times rename has blocked due to ROB full
system.cpu.rename.RenameLookups                 65598                       # Number of register rename lookups that rename has made
system.cpu.rename.RenamedInsts                  45601                       # Number of instructions processed by rename
system.cpu.rename.RenamedOperands               42477                       # Number of destination operands rename has renamed
system.cpu.rename.RunCycles                      7822                       # Number of cycles rename is running
system.cpu.rename.SQFullEvents                   1374                       # Number of times rename has blocked due to SQ full
system.cpu.rename.SquashCycles                    943                       # Number of cycles rename is squashing
system.cpu.rename.UnblockCycles                  1883                       # Number of cycles rename is unblocking
system.cpu.rename.UndoneMaps                    15696                       # Number of HB maps that are undone due to squashing
system.cpu.rename.int_rename_lookups            50711                       # Number of integer rename lookups
system.cpu.rename.serializeStallCycles           6987                       # count of cycles rename stalled for serializing inst
system.cpu.rename.serializingInsts                304                       # count of serializing insts renamed
system.cpu.rename.skidInsts                      3470                       # count of insts added to the skid buffer
system.cpu.rename.tempSerializingInsts             95                       # count of temporary serializing insts renamed
system.cpu.rename.vec_rename_lookups              926                       # Number of vector rename lookups
system.cpu.rob.rob_reads                        83802                       # The number of ROB reads
system.cpu.rob.rob_writes                       87753                       # The number of ROB writes
system.cpu.timesIdled                             772                       # Number of times that the entire CPU went into an idle state and unscheduled itself
system.cpu.vec_regfile_reads                      592                       # number of vector regfile reads
system.cpu.vec_regfile_writes                     152                       # number of vector regfile writes
system.cpu.workload.numSyscalls                    17                       # Number of system calls
system.membus.snoop_filter.hit_multi_requests            0                       # Number of requests hitting in the snoop filter with multiple (>1) holders of the requested data.
system.membus.snoop_filter.hit_multi_snoops            0                       # Number of snoops hitting in the snoop filter with multiple (>1) holders of the requested data.
system.membus.snoop_filter.hit_single_requests            0                       # Number of requests hitting in the snoop filter with a single holder of the requested data.
system.membus.snoop_filter.hit_single_snoops            0                       # Number of snoops hitting in the snoop filter with a single holder of the requested data.
system.membus.snoop_filter.tot_requests          1244                       # Total number of requests made to the snoop filter.
system.membus.snoop_filter.tot_snoops               0                       # Total number of snoops made to the snoop filter.
system.tol2bus.snoop_filter.hit_multi_requests            2                       # Number of requests hitting in the snoop filter with multiple (>1) holders of the requested data.
system.tol2bus.snoop_filter.hit_multi_snoops            0                       # Number of snoops hitting in the snoop filter with multiple (>1) holders of the requested data.
system.tol2bus.snoop_filter.hit_single_requests         1211                       # Number of requests hitting in the snoop filter with a single holder of the requested data.
system.tol2bus.snoop_filter.hit_single_snoops            0                       # Number of snoops hitting in the snoop filter with a single holder of the requested data.
system.tol2bus.snoop_filter.tot_requests         2917                       # Total number of requests made to the snoop filter.
system.tol2bus.snoop_filter.tot_snoops              0                       # Total number of snoops made to the snoop filter.
system.membus.trans_dist::ReadResp               1019                       # Transaction distribution
system.membus.trans_dist::ReadExReq               168                       # Transaction distribution
system.membus.trans_dist::ReadExResp              168                       # Transaction distribution
system.membus.trans_dist::ReadSharedReq          1020                       # Transaction distribution
system.membus.trans_dist::InvalidateReq            56                       # Transaction distribution
system.membus.pkt_count_system.l2.mem_side::system.mem_ctrls.port         2431                       # Packet count per connected master and slave (bytes)
system.membus.pkt_count::total                   2431                       # Packet count per connected master and slave (bytes)
system.membus.pkt_size_system.l2.mem_side::system.mem_ctrls.port        75968                       # Cumulative packet size per connected master and slave (bytes)
system.membus.pkt_size::total                   75968                       # Cumulative packet size per connected master and slave (bytes)
system.membus.snoops                                0                       # Total snoops (count)
system.membus.snoopTraffic                          0                       # Total snoop traffic (bytes)
system.membus.snoop_fanout::samples              1244                       # Request fanout histogram
system.membus.snoop_fanout::mean                    0                       # Request fanout histogram
system.membus.snoop_fanout::stdev                   0                       # Request fanout histogram
system.membus.snoop_fanout::underflows              0      0.00%      0.00% # Request fanout histogram
system.membus.snoop_fanout::0                    1244    100.00%    100.00% # Request fanout histogram
system.membus.snoop_fanout::1                       0      0.00%    100.00% # Request fanout histogram
system.membus.snoop_fanout::overflows               0      0.00%    100.00% # Request fanout histogram
system.membus.snoop_fanout::min_value               0                       # Request fanout histogram
system.membus.snoop_fanout::max_value               0                       # Request fanout histogram
system.membus.snoop_fanout::total                1244                       # Request fanout histogram
system.membus.reqLayer0.occupancy             1544000                       # Layer occupancy (ticks)
system.membus.reqLayer0.utilization               2.6                       # Layer utilization (%)
system.membus.respLayer1.occupancy            6279000                       # Layer occupancy (ticks)
system.membus.respLayer1.utilization             10.6                       # Layer utilization (%)
system.membus.power_state.pwrStateResidencyTicks::UNDEFINED     59026500                       # Cumulative time (in ticks) in various power states
system.tol2bus.trans_dist::ReadResp              1482                       # Transaction distribution
system.tol2bus.trans_dist::WritebackClean         1207                       # Transaction distribution
system.tol2bus.trans_dist::CleanEvict               3                       # Transaction distribution
system.tol2bus.trans_dist::ReadExReq              168                       # Transaction distribution
system.tol2bus.trans_dist::ReadExResp             168                       # Transaction distribution
system.tol2bus.trans_dist::ReadCleanReq          1336                       # Transaction distribution
system.tol2bus.trans_dist::ReadSharedReq          147                       # Transaction distribution
system.tol2bus.trans_dist::InvalidateReq           56                       # Transaction distribution
system.tol2bus.trans_dist::InvalidateResp           56                       # Transaction distribution
system.tol2bus.pkt_count_system.cpu.icache.mem_side::system.l2.cpu_side         3878                       # Packet count per connected master and slave (bytes)
system.tol2bus.pkt_count_system.cpu.dcache.mem_side::system.l2.cpu_side          745                       # Packet count per connected master and slave (bytes)
system.tol2bus.pkt_count::total                  4623                       # Packet count per connected master and slave (bytes)
system.tol2bus.pkt_size_system.cpu.icache.mem_side::system.l2.cpu_side       162688                       # Cumulative packet size per connected master and slave (bytes)
system.tol2bus.pkt_size_system.cpu.dcache.mem_side::system.l2.cpu_side        20160                       # Cumulative packet size per connected master and slave (bytes)
system.tol2bus.pkt_size::total                 182848                       # Cumulative packet size per connected master and slave (bytes)
system.tol2bus.snoops                               0                       # Total snoops (count)
system.tol2bus.snoopTraffic                         0                       # Total snoop traffic (bytes)
system.tol2bus.snoop_fanout::samples             1707                       # Request fanout histogram
system.tol2bus.snoop_fanout::mean            0.001757                       # Request fanout histogram
system.tol2bus.snoop_fanout::stdev           0.041898                       # Request fanout histogram
system.tol2bus.snoop_fanout::underflows             0      0.00%      0.00% # Request fanout histogram
system.tol2bus.snoop_fanout::0                   1704     99.82%     99.82% # Request fanout histogram
system.tol2bus.snoop_fanout::1                      3      0.18%    100.00% # Request fanout histogram
system.tol2bus.snoop_fanout::2                      0      0.00%    100.00% # Request fanout histogram
system.tol2bus.snoop_fanout::overflows              0      0.00%    100.00% # Request fanout histogram
system.tol2bus.snoop_fanout::min_value              0                       # Request fanout histogram
system.tol2bus.snoop_fanout::max_value              1                       # Request fanout histogram
system.tol2bus.snoop_fanout::total               1707                       # Request fanout histogram
system.tol2bus.reqLayer0.occupancy            2741240                       # Layer occupancy (ticks)
system.tol2bus.reqLayer0.utilization              4.6                       # Layer utilization (%)
system.tol2bus.respLayer1.occupancy            500500                       # Layer occupancy (ticks)
system.tol2bus.respLayer1.utilization             0.8                       # Layer utilization (%)
system.tol2bus.respLayer0.occupancy           2002500                       # Layer occupancy (ticks)
system.tol2bus.respLayer0.utilization             3.4                       # Layer utilization (%)
system.tol2bus.power_state.pwrStateResidencyTicks::UNDEFINED     59026500                       # Cumulative time (in ticks) in various power states
system.voltage_domain.voltage                       1                       # Voltage in Volts
system.clk_domain.clock                          1000                       # Clock period in ticks
system.l2.demand_hits::.cpu.inst                  254                       # number of demand (read+write) hits
system.l2.demand_hits::.cpu.data                    2                       # number of demand (read+write) hits
system.l2.demand_hits::.cpu.icache.prefetcher          207                       # number of demand (read+write) hits
system.l2.demand_hits::total                      463                       # number of demand (read+write) hits
system.l2.overall_hits::.cpu.inst                 254                       # number of overall hits
system.l2.overall_hits::.cpu.data                   2                       # number of overall hits
system.l2.overall_hits::.cpu.icache.prefetcher          207                       # number of overall hits
system.l2.overall_hits::total                     463                       # number of overall hits
system.l2.demand_misses::.cpu.inst                875                       # number of demand (read+write) misses
system.l2.demand_misses::.cpu.data                313                       # number of demand (read+write) misses
system.l2.demand_misses::total                   1188                       # number of demand (read+write) misses
system.l2.overall_misses::.cpu.inst               875                       # number of overall misses
system.l2.overall_misses::.cpu.data               313                       # number of overall misses
system.l2.overall_misses::total                  1188                       # number of overall misses
system.l2.demand_miss_latency::.cpu.inst     67834500                       # number of demand (read+write) miss cycles
system.l2.demand_miss_latency::.cpu.data     26077000                       # number of demand (read+write) miss cycles
system.l2.demand_miss_latency::total         93911500                       # number of demand (read+write) miss cycles
system.l2.overall_miss_latency::.cpu.inst     67834500                       # number of overall miss cycles
system.l2.overall_miss_latency::.cpu.data     26077000                       # number of overall miss cycles
system.l2.overall_miss_latency::total        93911500                       # number of overall miss cycles
system.l2.demand_accesses::.cpu.inst             1129                       # number of demand (read+write) accesses
system.l2.demand_accesses::.cpu.data              315                       # number of demand (read+write) accesses
system.l2.demand_accesses::.cpu.icache.prefetcher          207                       # number of demand (read+write) accesses
system.l2.demand_accesses::total                 1651                       # number of demand (read+write) accesses
system.l2.overall_accesses::.cpu.inst            1129                       # number of overall (read+write) accesses
system.l2.overall_accesses::.cpu.data             315                       # number of overall (read+write) accesses
system.l2.overall_accesses::.cpu.icache.prefetcher          207                       # number of overall (read+write) accesses
system.l2.overall_accesses::total                1651                       # number of overall (read+write) accesses
system.l2.demand_miss_rate::.cpu.inst        0.775022                       # miss rate for demand accesses
system.l2.demand_miss_rate::.cpu.data        0.993651                       # miss rate for demand accesses
system.l2.demand_miss_rate::total            0.719564                       # miss rate for demand accesses
system.l2.overall_miss_rate::.cpu.inst       0.775022                       # miss rate for overall accesses
system.l2.overall_miss_rate::.cpu.data       0.993651                       # miss rate for overall accesses
system.l2.overall_miss_rate::total           0.719564                       # miss rate for overall accesses
system.l2.demand_avg_miss_latency::.cpu.inst 77525.142857                       # average overall miss latency
system.l2.demand_avg_miss_latency::.cpu.data 83313.099042                       # average overall miss latency
system.l2.demand_avg_miss_latency::total 79050.084175                       # average overall miss latency
system.l2.overall_avg_miss_latency::.cpu.inst 77525.142857                       # average overall miss latency
system.l2.overall_avg_miss_latency::.cpu.data 83313.099042                       # average overall miss latency
system.l2.overall_avg_miss_latency::total 79050.084175                       # average overall miss latency
system.l2.blocked_cycles::no_mshrs                  0                       # number of cycles access was blocked
system.l2.blocked_cycles::no_targets                0                       # number of cycles access was blocked
system.l2.blocked::no_mshrs                         0                       # number of cycles access was blocked
system.l2.blocked::no_targets                       0                       # number of cycles access was blocked
system.l2.avg_blocked_cycles::no_mshrs            nan                       # average number of cycles each access was blocked
system.l2.avg_blocked_cycles::no_targets          nan                       # average number of cycles each access was blocked
system.l2.demand_mshr_misses::.cpu.inst           875                       # number of demand (read+write) MSHR misses
system.l2.demand_mshr_misses::.cpu.data           313                       # number of demand (read+write) MSHR misses
system.l2.demand_mshr_misses::total              1188                       # number of demand (read+write) MSHR misses
system.l2.overall_mshr_misses::.cpu.inst          875                       # number of overall MSHR misses
system.l2.overall_mshr_misses::.cpu.data          313                       # number of overall MSHR misses
system.l2.overall_mshr_misses::total             1188                       # number of overall MSHR misses
system.l2.demand_mshr_miss_latency::.cpu.inst     59094500                       # number of demand (read+write) MSHR miss cycles
system.l2.demand_mshr_miss_latency::.cpu.data     22947000                       # number of demand (read+write) MSHR miss cycles
system.l2.demand_mshr_miss_latency::total     82041500                       # number of demand (read+write) MSHR miss cycles
system.l2.overall_mshr_miss_latency::.cpu.inst     59094500                       # number of overall MSHR miss cycles
system.l2.overall_mshr_miss_latency::.cpu.data     22947000                       # number of overall MSHR miss cycles
system.l2.overall_mshr_miss_latency::total     82041500                       # number of overall MSHR miss cycles
system.l2.demand_mshr_miss_rate::.cpu.inst     0.775022                       # mshr miss rate for demand accesses
system.l2.demand_mshr_miss_rate::.cpu.data     0.993651                       # mshr miss rate for demand accesses
system.l2.demand_mshr_miss_rate::total       0.719564                       # mshr miss rate for demand accesses
system.l2.overall_mshr_miss_rate::.cpu.inst     0.775022                       # mshr miss rate for overall accesses
system.l2.overall_mshr_miss_rate::.cpu.data     0.993651                       # mshr miss rate for overall accesses
system.l2.overall_mshr_miss_rate::total      0.719564                       # mshr miss rate for overall accesses
system.l2.demand_avg_mshr_miss_latency::.cpu.inst 67536.571429                       # average overall mshr miss latency
system.l2.demand_avg_mshr_miss_latency::.cpu.data 73313.099042                       # average overall mshr miss latency
system.l2.demand_avg_mshr_miss_latency::total 69058.501684                       # average overall mshr miss latency
system.l2.overall_avg_mshr_miss_latency::.cpu.inst 67536.571429                       # average overall mshr miss latency
system.l2.overall_avg_mshr_miss_latency::.cpu.data 73313.099042                       # average overall mshr miss latency
system.l2.overall_avg_mshr_miss_latency::total 69058.501684                       # average overall mshr miss latency
system.l2.replacements                              0                       # number of replacements
system.l2.WritebackClean_hits::.writebacks         1205                       # number of WritebackClean hits
system.l2.WritebackClean_hits::total             1205                       # number of WritebackClean hits
system.l2.WritebackClean_accesses::.writebacks         1205                       # number of WritebackClean accesses(hits+misses)
system.l2.WritebackClean_accesses::total         1205                       # number of WritebackClean accesses(hits+misses)
system.l2.ReadExReq_misses::.cpu.data             168                       # number of ReadExReq misses
system.l2.ReadExReq_misses::total                 168                       # number of ReadExReq misses
system.l2.ReadExReq_miss_latency::.cpu.data     13766000                       # number of ReadExReq miss cycles
system.l2.ReadExReq_miss_latency::total      13766000                       # number of ReadExReq miss cycles
system.l2.ReadExReq_accesses::.cpu.data           168                       # number of ReadExReq accesses(hits+misses)
system.l2.ReadExReq_accesses::total               168                       # number of ReadExReq accesses(hits+misses)
system.l2.ReadExReq_miss_rate::.cpu.data            1                       # miss rate for ReadExReq accesses
system.l2.ReadExReq_miss_rate::total                1                       # miss rate for ReadExReq accesses
system.l2.ReadExReq_avg_miss_latency::.cpu.data 81940.476190                       # average ReadExReq miss latency
system.l2.ReadExReq_avg_miss_latency::total 81940.476190                       # average ReadExReq miss latency
system.l2.ReadExReq_mshr_misses::.cpu.data          168                       # number of ReadExReq MSHR misses
system.l2.ReadExReq_mshr_misses::total            168                       # number of ReadExReq MSHR misses
system.l2.ReadExReq_mshr_miss_latency::.cpu.data     12086000                       # number of ReadExReq MSHR miss cycles
system.l2.ReadExReq_mshr_miss_latency::total     12086000                       # number of ReadExReq MSHR miss cycles
system.l2.ReadExReq_mshr_miss_rate::.cpu.data            1                       # mshr miss rate for ReadExReq accesses
system.l2.ReadExReq_mshr_miss_rate::total            1                       # mshr miss rate for ReadExReq accesses
system.l2.ReadExReq_avg_mshr_miss_latency::.cpu.data 71940.476190                       # average ReadExReq mshr miss latency
system.l2.ReadExReq_avg_mshr_miss_latency::total 71940.476190                       # average ReadExReq mshr miss latency
system.l2.ReadCleanReq_hits::.cpu.inst            254                       # number of ReadCleanReq hits
system.l2.ReadCleanReq_hits::.cpu.icache.prefetcher          207                       # number of ReadCleanReq hits
system.l2.ReadCleanReq_hits::total                461                       # number of ReadCleanReq hits
system.l2.ReadCleanReq_misses::.cpu.inst          875                       # number of ReadCleanReq misses
system.l2.ReadCleanReq_misses::total              875                       # number of ReadCleanReq misses
system.l2.ReadCleanReq_miss_latency::.cpu.inst     67834500                       # number of ReadCleanReq miss cycles
system.l2.ReadCleanReq_miss_latency::total     67834500                       # number of ReadCleanReq miss cycles
system.l2.ReadCleanReq_accesses::.cpu.inst         1129                       # number of ReadCleanReq accesses(hits+misses)
system.l2.ReadCleanReq_accesses::.cpu.icache.prefetcher          207                       # number of ReadCleanReq accesses(hits+misses)
system.l2.ReadCleanReq_accesses::total           1336                       # number of ReadCleanReq accesses(hits+misses)
system.l2.ReadCleanReq_miss_rate::.cpu.inst     0.775022                       # miss rate for ReadCleanReq accesses
system.l2.ReadCleanReq_miss_rate::total      0.654940                       # miss rate for ReadCleanReq accesses
system.l2.ReadCleanReq_avg_miss_latency::.cpu.inst 77525.142857                       # average ReadCleanReq miss latency
system.l2.ReadCleanReq_avg_miss_latency::total 77525.142857                       # average ReadCleanReq miss latency
system.l2.ReadCleanReq_mshr_misses::.cpu.inst          875                       # number of ReadCleanReq MSHR misses
system.l2.ReadCleanReq_mshr_misses::total          875                       # number of ReadCleanReq MSHR misses
[...]
system.cpu.dcache.overall_misses::.cpu.data         1230                       # number of overall misses
system.cpu.dcache.overall_misses::total          1230                       # number of overall misses
system.cpu.dcache.demand_miss_latency::.cpu.data     87059427                       # number of demand (read+write) miss cycles
system.cpu.dcache.demand_miss_latency::total     87059427                       # number of demand (read+write) miss cycles
system.cpu.dcache.overall_miss_latency::.cpu.data     87059427                       # number of overall miss cycles
system.cpu.dcache.overall_miss_latency::total     87059427                       # number of overall miss cycles
system.cpu.dcache.demand_accesses::.cpu.data        10108                       # number of demand (read+write) accesses
system.cpu.dcache.demand_accesses::total        10108                       # number of demand (read+write) accesses
system.cpu.dcache.overall_accesses::.cpu.data        10133                       # number of overall (read+write) accesses
system.cpu.dcache.overall_accesses::total        10133                       # number of overall (read+write) accesses
system.cpu.dcache.demand_miss_rate::.cpu.data     0.121290                       # miss rate for demand accesses
system.cpu.dcache.demand_miss_rate::total     0.121290                       # miss rate for demand accesses
system.cpu.dcache.overall_miss_rate::.cpu.data     0.121386                       # miss rate for overall accesses
system.cpu.dcache.overall_miss_rate::total     0.121386                       # miss rate for overall accesses
system.cpu.dcache.demand_avg_miss_latency::.cpu.data 71010.951876                       # average overall miss latency
system.cpu.dcache.demand_avg_miss_latency::total 71010.951876                       # average overall miss latency
system.cpu.dcache.overall_avg_miss_latency::.cpu.data 70780.021951                       # average overall miss latency
system.cpu.dcache.overall_avg_miss_latency::total 70780.021951                       # average overall miss latency
system.cpu.dcache.blocked_cycles::no_mshrs         3106                       # number of cycles access was blocked
system.cpu.dcache.blocked_cycles::no_targets            0                       # number of cycles access was blocked
system.cpu.dcache.blocked::no_mshrs                94                       # number of cycles access was blocked
system.cpu.dcache.blocked::no_targets               0                       # number of cycles access was blocked
system.cpu.dcache.avg_blocked_cycles::no_mshrs    33.042553                       # average number of cycles each access was blocked
system.cpu.dcache.avg_blocked_cycles::no_targets          nan                       # average number of cycles each access was blocked
system.cpu.dcache.demand_mshr_hits::.cpu.data          860                       # number of demand (read+write) MSHR hits
system.cpu.dcache.demand_mshr_hits::total          860                       # number of demand (read+write) MSHR hits
system.cpu.dcache.overall_mshr_hits::.cpu.data          860                       # number of overall MSHR hits
system.cpu.dcache.overall_mshr_hits::total          860                       # number of overall MSHR hits
system.cpu.dcache.demand_mshr_misses::.cpu.data          366                       # number of demand (read+write) MSHR misses
system.cpu.dcache.demand_mshr_misses::total          366                       # number of demand (read+write) MSHR misses
system.cpu.dcache.overall_mshr_misses::.cpu.data          370                       # number of overall MSHR misses
system.cpu.dcache.overall_mshr_misses::total          370                       # number of overall MSHR misses
system.cpu.dcache.demand_mshr_miss_latency::.cpu.data     27802964                       # number of demand (read+write) MSHR miss cycles
system.cpu.dcache.demand_mshr_miss_latency::total     27802964                       # number of demand (read+write) MSHR miss cycles
system.cpu.dcache.overall_mshr_miss_latency::.cpu.data     28204964                       # number of overall MSHR miss cycles
system.cpu.dcache.overall_mshr_miss_latency::total     28204964                       # number of overall MSHR miss cycles
system.cpu.dcache.demand_mshr_miss_rate::.cpu.data     0.036209                       # mshr miss rate for demand accesses
system.cpu.dcache.demand_mshr_miss_rate::total     0.036209                       # mshr miss rate for demand accesses
system.cpu.dcache.overall_mshr_miss_rate::.cpu.data     0.036514                       # mshr miss rate for overall accesses
system.cpu.dcache.overall_mshr_miss_rate::total     0.036514                       # mshr miss rate for overall accesses
system.cpu.dcache.demand_avg_mshr_miss_latency::.cpu.data 75964.382514                       # average overall mshr miss latency
system.cpu.dcache.demand_avg_mshr_miss_latency::total 75964.382514                       # average overall mshr miss latency
system.cpu.dcache.overall_avg_mshr_miss_latency::.cpu.data 76229.632432                       # average overall mshr miss latency
system.cpu.dcache.overall_avg_mshr_miss_latency::total 76229.632432                       # average overall mshr miss latency
system.cpu.dcache.replacements                      3                       # number of replacements
system.cpu.dcache.ReadReq_hits::.cpu.data         5148                       # number of ReadReq hits
system.cpu.dcache.ReadReq_hits::total            5148                       # number of ReadReq hits
system.cpu.dcache.ReadReq_misses::.cpu.data          330                       # number of ReadReq misses
system.cpu.dcache.ReadReq_misses::total           330                       # number of ReadReq misses
system.cpu.dcache.ReadReq_miss_latency::.cpu.data     23347500                       # number of ReadReq miss cycles
system.cpu.dcache.ReadReq_miss_latency::total     23347500                       # number of ReadReq miss cycles
system.cpu.dcache.ReadReq_accesses::.cpu.data         5478                       # number of ReadReq accesses(hits+misses)
system.cpu.dcache.ReadReq_accesses::total         5478                       # number of ReadReq accesses(hits+misses)
system.cpu.dcache.ReadReq_miss_rate::.cpu.data     0.060241                       # miss rate for ReadReq accesses
system.cpu.dcache.ReadReq_miss_rate::total     0.060241                       # miss rate for ReadReq accesses
system.cpu.dcache.ReadReq_avg_miss_latency::.cpu.data        70750                       # average ReadReq miss latency
system.cpu.dcache.ReadReq_avg_miss_latency::total        70750                       # average ReadReq miss latency
system.cpu.dcache.ReadReq_mshr_hits::.cpu.data          188                       # number of ReadReq MSHR hits
system.cpu.dcache.ReadReq_mshr_hits::total          188                       # number of ReadReq MSHR hits
system.cpu.dcache.ReadReq_mshr_misses::.cpu.data          142                       # number of ReadReq MSHR misses
system.cpu.dcache.ReadReq_mshr_misses::total          142                       # number of ReadReq MSHR misses
system.cpu.dcache.ReadReq_mshr_miss_latency::.cpu.data     12052000                       # number of ReadReq MSHR miss cycles
system.cpu.dcache.ReadReq_mshr_miss_latency::total     12052000                       # number of ReadReq MSHR miss cycles
system.cpu.dcache.ReadReq_mshr_miss_rate::.cpu.data     0.025922                       # mshr miss rate for ReadReq accesses
system.cpu.dcache.ReadReq_mshr_miss_rate::total     0.025922                       # mshr miss rate for ReadReq accesses
system.cpu.dcache.ReadReq_avg_mshr_miss_latency::.cpu.data 84873.239437                       # average ReadReq mshr miss latency
system.cpu.dcache.ReadReq_avg_mshr_miss_latency::total 84873.239437                       # average ReadReq mshr miss latency
system.cpu.dcache.WriteReq_hits::.cpu.data         3734                       # number of WriteReq hits
system.cpu.dcache.WriteReq_hits::total           3734                       # number of WriteReq hits
system.cpu.dcache.WriteReq_misses::.cpu.data          845                       # number of WriteReq misses
system.cpu.dcache.WriteReq_misses::total          845                       # number of WriteReq misses
system.cpu.dcache.WriteReq_miss_latency::.cpu.data     62089955                       # number of WriteReq miss cycles
system.cpu.dcache.WriteReq_miss_latency::total     62089955                       # number of WriteReq miss cycles
system.cpu.dcache.WriteReq_accesses::.cpu.data         4579                       # number of WriteReq accesses(hits+misses)
system.cpu.dcache.WriteReq_accesses::total         4579                       # number of WriteReq accesses(hits+misses)
system.cpu.dcache.WriteReq_miss_rate::.cpu.data     0.184538                       # miss rate for WriteReq accesses
system.cpu.dcache.WriteReq_miss_rate::total     0.184538                       # miss rate for WriteReq accesses
system.cpu.dcache.WriteReq_avg_miss_latency::.cpu.data 73479.236686                       # average WriteReq miss latency
system.cpu.dcache.WriteReq_avg_miss_latency::total 73479.236686                       # average WriteReq miss latency
system.cpu.dcache.WriteReq_mshr_hits::.cpu.data          672                       # number of WriteReq MSHR hits
system.cpu.dcache.WriteReq_mshr_hits::total          672                       # number of WriteReq MSHR hits
system.cpu.dcache.WriteReq_mshr_misses::.cpu.data          173                       # number of WriteReq MSHR misses
system.cpu.dcache.WriteReq_mshr_misses::total          173                       # number of WriteReq MSHR misses
system.cpu.dcache.WriteReq_mshr_miss_latency::.cpu.data     14179992                       # number of WriteReq MSHR miss cycles
system.cpu.dcache.WriteReq_mshr_miss_latency::total     14179992                       # number of WriteReq MSHR miss cycles
system.cpu.dcache.WriteReq_mshr_miss_rate::.cpu.data     0.037781                       # mshr miss rate for WriteReq accesses
system.cpu.dcache.WriteReq_mshr_miss_rate::total     0.037781                       # mshr miss rate for WriteReq accesses
system.cpu.dcache.WriteReq_avg_mshr_miss_latency::.cpu.data 81965.271676                       # average WriteReq mshr miss latency
system.cpu.dcache.WriteReq_avg_mshr_miss_latency::total 81965.271676                       # average WriteReq mshr miss latency
system.cpu.dcache.SoftPFReq_hits::.cpu.data           21                       # number of SoftPFReq hits
system.cpu.dcache.SoftPFReq_hits::total            21                       # number of SoftPFReq hits
system.cpu.dcache.SoftPFReq_misses::.cpu.data            4                       # number of SoftPFReq misses
system.cpu.dcache.SoftPFReq_misses::total            4                       # number of SoftPFReq misses
system.cpu.dcache.SoftPFReq_accesses::.cpu.data           25                       # number of SoftPFReq accesses(hits+misses)
system.cpu.dcache.SoftPFReq_accesses::total           25                       # number of SoftPFReq accesses(hits+misses)
system.cpu.dcache.SoftPFReq_miss_rate::.cpu.data     0.160000                       # miss rate for SoftPFReq accesses
system.cpu.dcache.SoftPFReq_miss_rate::total     0.160000                       # miss rate for SoftPFReq accesses
system.cpu.dcache.SoftPFReq_mshr_misses::.cpu.data            4                       # number of SoftPFReq MSHR misses
system.cpu.dcache.SoftPFReq_mshr_misses::total            4                       # number of SoftPFReq MSHR misses
system.cpu.dcache.SoftPFReq_mshr_miss_latency::.cpu.data       402000                       # number of SoftPFReq MSHR miss cycles
system.cpu.dcache.SoftPFReq_mshr_miss_latency::total       402000                       # number of SoftPFReq MSHR miss cycles
system.cpu.dcache.SoftPFReq_mshr_miss_rate::.cpu.data     0.160000                       # mshr miss rate for SoftPFReq accesses
system.cpu.dcache.SoftPFReq_mshr_miss_rate::total     0.160000                       # mshr miss rate for SoftPFReq accesses
system.cpu.dcache.SoftPFReq_avg_mshr_miss_latency::.cpu.data       100500                       # average SoftPFReq mshr miss latency
system.cpu.dcache.SoftPFReq_avg_mshr_miss_latency::total       100500                       # average SoftPFReq mshr miss latency
system.cpu.dcache.WriteLineReq_misses::.cpu.data           51                       # number of WriteLineReq misses
system.cpu.dcache.WriteLineReq_misses::total           51                       # number of WriteLineReq misses
system.cpu.dcache.WriteLineReq_miss_latency::.cpu.data      1621972                       # number of WriteLineReq miss cycles
system.cpu.dcache.WriteLineReq_miss_latency::total      1621972                       # number of WriteLineReq miss cycles
system.cpu.dcache.WriteLineReq_accesses::.cpu.data           51                       # number of WriteLineReq accesses(hits+misses)
system.cpu.dcache.WriteLineReq_accesses::total           51                       # number of WriteLineReq accesses(hits+misses)
system.cpu.dcache.WriteLineReq_miss_rate::.cpu.data            1                       # miss rate for WriteLineReq accesses
system.cpu.dcache.WriteLineReq_miss_rate::total            1                       # miss rate for WriteLineReq accesses
system.cpu.dcache.WriteLineReq_avg_miss_latency::.cpu.data 31803.372549                       # average WriteLineReq miss latency
system.cpu.dcache.WriteLineReq_avg_miss_latency::total 31803.372549                       # average WriteLineReq miss latency
system.cpu.dcache.WriteLineReq_mshr_misses::.cpu.data           51                       # number of WriteLineReq MSHR misses
system.cpu.dcache.WriteLineReq_mshr_misses::total           51                       # number of WriteLineReq MSHR misses
system.cpu.dcache.WriteLineReq_mshr_miss_latency::.cpu.data      1570972                       # number of WriteLineReq MSHR miss cycles
system.cpu.dcache.WriteLineReq_mshr_miss_latency::total      1570972                       # number of WriteLineReq MSHR miss cycles
system.cpu.dcache.WriteLineReq_mshr_miss_rate::.cpu.data            1                       # mshr miss rate for WriteLineReq accesses
system.cpu.dcache.WriteLineReq_mshr_miss_rate::total            1                       # mshr miss rate for WriteLineReq accesses
system.cpu.dcache.WriteLineReq_avg_mshr_miss_latency::.cpu.data 30803.372549                       # average WriteLineReq mshr miss latency
system.cpu.dcache.WriteLineReq_avg_mshr_miss_latency::total 30803.372549                       # average WriteLineReq mshr miss latency
system.cpu.dcache.LoadLockedReq_hits::.cpu.data           49                       # number of LoadLockedReq hits
system.cpu.dcache.LoadLockedReq_hits::total           49                       # number of LoadLockedReq hits
system.cpu.dcache.LoadLockedReq_misses::.cpu.data            1                       # number of LoadLockedReq misses
system.cpu.dcache.LoadLockedReq_misses::total            1                       # number of LoadLockedReq misses
system.cpu.dcache.LoadLockedReq_miss_latency::.cpu.data       104000                       # number of LoadLockedReq miss cycles
system.cpu.dcache.LoadLockedReq_miss_latency::total       104000                       # number of LoadLockedReq miss cycles
system.cpu.dcache.LoadLockedReq_accesses::.cpu.data           50                       # number of LoadLockedReq accesses(hits+misses)
system.cpu.dcache.LoadLockedReq_accesses::total           50                       # number of LoadLockedReq accesses(hits+misses)
system.cpu.dcache.LoadLockedReq_miss_rate::.cpu.data     0.020000                       # miss rate for LoadLockedReq accesses
system.cpu.dcache.LoadLockedReq_miss_rate::total     0.020000                       # miss rate for LoadLockedReq accesses
system.cpu.dcache.LoadLockedReq_avg_miss_latency::.cpu.data       104000                       # average LoadLockedReq miss latency
system.cpu.dcache.LoadLockedReq_avg_miss_latency::total       104000                       # average LoadLockedReq miss latency
system.cpu.dcache.LoadLockedReq_mshr_misses::.cpu.data            1                       # number of LoadLockedReq MSHR misses
system.cpu.dcache.LoadLockedReq_mshr_misses::total            1                       # number of LoadLockedReq MSHR misses
system.cpu.dcache.LoadLockedReq_mshr_miss_latency::.cpu.data       103000                       # number of LoadLockedReq MSHR miss cycles
system.cpu.dcache.LoadLockedReq_mshr_miss_latency::total       103000                       # number of LoadLockedReq MSHR miss cycles
system.cpu.dcache.LoadLockedReq_mshr_miss_rate::.cpu.data     0.020000                       # mshr miss rate for LoadLockedReq accesses
system.cpu.dcache.LoadLockedReq_mshr_miss_rate::total     0.020000                       # mshr miss rate for LoadLockedReq accesses
system.cpu.dcache.LoadLockedReq_avg_mshr_miss_latency::.cpu.data       103000                       # average LoadLockedReq mshr miss latency
system.cpu.dcache.LoadLockedReq_avg_mshr_miss_latency::total       103000                       # average LoadLockedReq mshr miss latency
system.cpu.dcache.StoreCondReq_hits::.cpu.data           36                       # number of StoreCondReq hits
system.cpu.dcache.StoreCondReq_hits::total           36                       # number of StoreCondReq hits
system.cpu.dcache.StoreCondReq_accesses::.cpu.data           36                       # number of StoreCondReq accesses(hits+misses)
system.cpu.dcache.StoreCondReq_accesses::total           36                       # number of StoreCondReq accesses(hits+misses)
system.cpu.dcache.power_state.pwrStateResidencyTicks::UNDEFINED     59026500                       # Cumulative time (in ticks) in various power states
system.cpu.dcache.tags.tagsinuse           240.269839                       # Cycle average of tags in use
system.cpu.dcache.tags.total_refs                9359                       # Total number of references to valid blocks.
system.cpu.dcache.tags.sampled_refs               371                       # Sample count of references to valid blocks.
system.cpu.dcache.tags.avg_refs             25.226415                       # Average number of references to valid blocks.
system.cpu.dcache.tags.warmup_cycle            176500                       # Cycle when the warmup percentage was hit.
system.cpu.dcache.tags.occ_blocks::.cpu.data   240.269839                       # Average occupied blocks per requestor
system.cpu.dcache.tags.occ_percent::.cpu.data     0.234639                       # Average percentage of cache occupancy
system.cpu.dcache.tags.occ_percent::total     0.234639                       # Average percentage of cache occupancy
system.cpu.dcache.tags.occ_task_id_blocks::1024          368                       # Occupied blocks per task id
system.cpu.dcache.tags.age_task_id_blocks_1024::0           27                       # Occupied blocks per task id
system.cpu.dcache.tags.age_task_id_blocks_1024::1          341                       # Occupied blocks per task id
system.cpu.dcache.tags.occ_task_id_percent::1024     0.359375                       # Percentage of cache occupancy per task id
system.cpu.dcache.tags.tag_accesses             20809                       # Number of tag accesses
system.cpu.dcache.tags.data_accesses            20809                       # Number of data accesses
system.cpu.dcache.tags.power_state.pwrStateResidencyTicks::UNDEFINED     59026500                       # Cumulative time (in ticks) in various power states
system.cpu.power_state.pwrStateResidencyTicks::ON     59026500                       # Cumulative time (in ticks) in various power states

---------- End Simulation Statistics   ----------
