
---------- Begin Simulation Statistics ----------
final_tick                                   64611500                       # Number of ticks from beginning of simulation (restored from checkpoints and never reset)
host_inst_rate                                  30738                       # Simulator instruction rate (inst/s)
host_mem_usage                                 870368                       # Number of bytes of host memory used
host_op_rate                                    38260                       # Simulator op (including micro ops) rate (op/s)
host_seconds                                     0.92                       # Real time elapsed on the host
host_tick_rate                               70093690                       # Simulator tick rate (ticks/s)
sim_freq                                 1000000000000                       # Frequency of simulated ticks
sim_insts                                       28328                       # Number of instructions simulated
sim_ops                                         35267                       # Number of ops (including micro ops) simulated
sim_seconds                                  0.000065                       # Number of seconds simulated
sim_ticks                                    64611500                       # Number of ticks simulated
system.cpu.branchPred.BTBCorrect                    0                       # Number of correct BTB predictions (this stat may not work properly.
system.cpu.branchPred.BTBHitPct             70.451694                       # BTB Hit Percentage
system.cpu.branchPred.BTBHits                    4492                       # Number of BTB hits
system.cpu.branchPred.BTBLookups                 6376                       # Number of BTB lookups
system.cpu.branchPred.RASInCorrect                  3                       # Number of incorrect RAS predictions.
system.cpu.branchPred.condIncorrect              1414                       # Number of conditional branches incorrect
system.cpu.branchPred.condPredicted              9141                       # Number of conditional branches predicted
system.cpu.branchPred.indirectHits                 58                       # Number of indirect target hits.
system.cpu.branchPred.indirectLookups             342                       # Number of indirect predictor lookups.
system.cpu.branchPred.indirectMisses              284                       # Number of indirect misses.
system.cpu.branchPred.lookups                   12655                       # Number of BP lookups
system.cpu.branchPred.usedRAS                    1005                       # Number of times the RAS was used to get a target.
system.cpu.branchPredindirectMispredicted          103                       # Number of mispredicted indirect branches.
system.cpu.cc_regfile_reads                     12390                       # number of cc regfile reads
system.cpu.cc_regfile_writes                    12126                       # number of cc regfile writes
system.cpu.commit.amos                              0                       # Number of atomic instructions committed
system.cpu.commit.branchMispredicts               948                       # The number of times a branch was mispredicted
system.cpu.commit.branches                       6653                       # Number of branches committed
system.cpu.commit.bw_lim_events                  1247                       # number cycles where commit BW limit reached
system.cpu.commit.commitNonSpecStalls              47                       # The number of times commit has been forced to stall to communicate backwards
system.cpu.commit.commitSquashedInsts           14930                       # The number of squashed insts skipped by commit
system.cpu.commit.committedInsts                28408                       # Number of instructions committed
system.cpu.commit.committedOps                  35347                       # Number of ops (including micro ops) committed
system.cpu.commit.committed_per_cycle::samples        51556                       # Number of insts commited each cycle
system.cpu.commit.committed_per_cycle::mean     0.685604                       # Number of insts commited each cycle
system.cpu.commit.committed_per_cycle::stdev     1.686373                       # Number of insts commited each cycle
system.cpu.commit.committed_per_cycle::underflows            0      0.00%      0.00% # Number of insts commited each cycle
system.cpu.commit.committed_per_cycle::0        40381     78.32%     78.32% # Number of insts commited each cycle
system.cpu.commit.committed_per_cycle::1         3639      7.06%     85.38% # Number of insts commited each cycle
system.cpu.commit.committed_per_cycle::2         2104      4.08%     89.46% # Number of insts commited each cycle
system.cpu.commit.committed_per_cycle::3         1277      2.48%     91.94% # Number of insts commited each cycle
system.cpu.commit.committed_per_cycle::4         1775      3.44%     95.38% # Number of insts commited each cycle
system.cpu.commit.committed_per_cycle::5          485      0.94%     96.32% # Number of insts commited each cycle
system.cpu.commit.committed_per_cycle::6          368      0.71%     97.04% # Number of insts commited each cycle
system.cpu.commit.committed_per_cycle::7          280      0.54%     97.58% # Number of insts commited each cycle
system.cpu.commit.committed_per_cycle::8         1247      2.42%    100.00% # Number of insts commited each cycle
system.cpu.commit.committed_per_cycle::overflows            0      0.00%    100.00% # Number of insts commited each cycle
system.cpu.commit.committed_per_cycle::min_value            0                       # Number of insts commited each cycle
system.cpu.commit.committed_per_cycle::max_value            8                       # Number of insts commited each cycle
system.cpu.commit.committed_per_cycle::total        51556                       # Number of insts commited each cycle
system.cpu.commit.fp_insts                          0                       # Number of committed floating point instructions.
system.cpu.commit.function_calls                  548                       # Number of function calls committed.
system.cpu.commit.int_insts                     31603                       # Number of committed integer instructions.
system.cpu.commit.loads                          4526                       # Number of loads committed
system.cpu.commit.membars                          20                       # Number of memory barriers committed
system.cpu.commit.op_class_0::No_OpClass            7      0.02%      0.02% # Class of committed instruction
system.cpu.commit.op_class_0::IntAlu            24100     68.18%     68.20% # Class of committed instruction
system.cpu.commit.op_class_0::IntMult              42      0.12%     68.32% # Class of committed instruction
system.cpu.commit.op_class_0::IntDiv                2      0.01%     68.33% # Class of committed instruction
system.cpu.commit.op_class_0::FloatAdd              0      0.00%     68.33% # Class of committed instruction
system.cpu.commit.op_class_0::FloatCmp              0      0.00%     68.33% # Class of committed instruction
system.cpu.commit.op_class_0::FloatCvt              0      0.00%     68.33% # Class of committed instruction
system.cpu.commit.op_class_0::FloatMult             0      0.00%     68.33% # Class of committed instruction
system.cpu.commit.op_class_0::FloatMultAcc            0      0.00%     68.33% # Class of committed instruction
system.cpu.commit.op_class_0::FloatDiv              0      0.00%     68.33% # Class of committed instruction
system.cpu.commit.op_class_0::FloatMisc             0      0.00%     68.33% # Class of committed instruction
system.cpu.commit.op_class_0::FloatSqrt             0      0.00%     68.33% # Class of committed instruction
system.cpu.commit.op_class_0::SimdAdd              24      0.07%     68.39% # Class of committed instruction
system.cpu.commit.op_class_0::SimdAddAcc            0      0.00%     68.39% # Class of committed instruction
system.cpu.commit.op_class_0::SimdAlu              28      0.08%     68.47% # Class of committed instruction
system.cpu.commit.op_class_0::SimdCmp              28      0.08%     68.55% # Class of committed instruction
system.cpu.commit.op_class_0::SimdCvt               0      0.00%     68.55% # Class of committed instruction
system.cpu.commit.op_class_0::SimdMisc             32      0.09%     68.64% # Class of committed instruction
system.cpu.commit.op_class_0::SimdMult              0      0.00%     68.64% # Class of committed instruction
system.cpu.commit.op_class_0::SimdMultAcc            0      0.00%     68.64% # Class of committed instruction
system.cpu.commit.op_class_0::SimdShift             0      0.00%     68.64% # Class of committed instruction
system.cpu.commit.op_class_0::SimdShiftAcc            0      0.00%     68.64% # Class of committed instruction
system.cpu.commit.op_class_0::SimdDiv               0      0.00%     68.64% # Class of committed instruction
system.cpu.commit.op_class_0::SimdSqrt              0      0.00%     68.64% # Class of committed instruction
system.cpu.commit.op_class_0::SimdFloatAdd            0      0.00%     68.64% # Class of committed instruction
system.cpu.commit.op_class_0::SimdFloatAlu            0      0.00%     68.64% # Class of committed instruction
system.cpu.commit.op_class_0::SimdFloatCmp            0      0.00%     68.64% # Class of committed instruction
system.cpu.commit.op_class_0::SimdFloatCvt            0      0.00%     68.64% # Class of committed instruction
system.cpu.commit.op_class_0::SimdFloatDiv            0      0.00%     68.64% # Class of committed instruction
system.cpu.commit.op_class_0::SimdFloatMisc            0      0.00%     68.64% # Class of committed instruction
system.cpu.commit.op_class_0::SimdFloatMult            0      0.00%     68.64% # Class of committed instruction
system.cpu.commit.op_class_0::SimdFloatMultAcc            0      0.00%     68.64% # Class of committed instruction
system.cpu.commit.op_class_0::SimdFloatSqrt            0      0.00%     68.64% # Class of committed instruction
system.cpu.commit.op_class_0::SimdReduceAdd            0      0.00%     68.64% # Class of committed instruction
system.cpu.commit.op_class_0::SimdReduceAlu            0      0.00%     68.64% # Class of committed instruction
system.cpu.commit.op_class_0::SimdReduceCmp            0      0.00%     68.64% # Class of committed instruction
system.cpu.commit.op_class_0::SimdFloatReduceAdd            0      0.00%     68.64% # Class of committed instruction
system.cpu.commit.op_class_0::SimdFloatReduceCmp            0      0.00%     68.64% # Class of committed instruction
system.cpu.commit.op_class_0::SimdAes               0      0.00%     68.64% # Class of committed instruction
system.cpu.commit.op_class_0::SimdAesMix            0      0.00%     68.64% # Class of committed instruction
system.cpu.commit.op_class_0::SimdSha1Hash            0      0.00%     68.64% # Class of committed instruction
system.cpu.commit.op_class_0::SimdSha1Hash2            0      0.00%     68.64% # Class of committed instruction
system.cpu.commit.op_class_0::SimdSha256Hash            0      0.00%     68.64% # Class of committed instruction
system.cpu.commit.op_class_0::SimdSha256Hash2            0      0.00%     68.64% # Class of committed instruction
system.cpu.commit.op_class_0::SimdShaSigma2            0      0.00%     68.64% # Class of committed instruction
system.cpu.commit.op_class_0::SimdShaSigma3            0      0.00%     68.64% # Class of committed instruction
system.cpu.commit.op_class_0::SimdPredAlu            0      0.00%     68.64% # Class of committed instruction
system.cpu.commit.op_class_0::MemRead            4526     12.80%     81.45% # Class of committed instruction
system.cpu.commit.op_class_0::MemWrite           6558     18.55%    100.00% # Class of committed instruction
system.cpu.commit.op_class_0::FloatMemRead            0      0.00%    100.00% # Class of committed instruction
system.cpu.commit.op_class_0::FloatMemWrite            0      0.00%    100.00% # Class of committed instruction
system.cpu.commit.op_class_0::IprAccess             0      0.00%    100.00% # Class of committed instruction
system.cpu.commit.op_class_0::InstPrefetch            0      0.00%    100.00% # Class of committed instruction
system.cpu.commit.op_class_0::total             35347                       # Class of committed instruction
system.cpu.commit.refs                          11084                       # Number of memory references committed
system.cpu.commit.swp_count                         0                       # Number of s/w prefetches committed
system.cpu.commit.vec_insts                       447                       # Number of committed Vector instructions.
system.cpu.committedInsts                       28328                       # Number of Instructions Simulated
system.cpu.committedOps                         35267                       # Number of Ops (including micro ops) Simulated
system.cpu.cpi                               4.561706                       # CPI: Cycles Per Instruction
system.cpu.cpi_total                         4.561706                       # CPI: Total CPI of All Threads
system.cpu.decode.BlockedCycles                 17040                       # Number of cycles decode is blocked
system.cpu.decode.BranchMispred                   497                       # Number of times decode detected a branch misprediction
system.cpu.decode.BranchResolved                 4698                       # Number of times decode resolved a branch
system.cpu.decode.DecodedInsts                  55966                       # Number of instructions handled by decode
system.cpu.decode.IdleCycles                    25788                       # Number of cycles decode is idle
system.cpu.decode.RunCycles                      9501                       # Number of cycles decode is running
system.cpu.decode.SquashCycles                    990                       # Number of cycles decode is squashing
system.cpu.decode.SquashedInsts                  1629                       # Number of squashed instructions handled by decode
system.cpu.decode.UnblockCycles                   706                       # Number of cycles decode is unblocking
system.cpu.dtb.accesses                             0                       # DTB accesses
system.cpu.dtb.align_faults                         0                       # Number of TLB faults due to alignment restrictions
system.cpu.dtb.domain_faults                        0                       # Number of TLB faults due to domain restrictions
system.cpu.dtb.flush_entries                        0                       # Number of entries that have been flushed from TLB
system.cpu.dtb.flush_tlb                            0                       # Number of times complete TLB was flushed
system.cpu.dtb.flush_tlb_asid                       0                       # Number of times TLB was flushed by ASID
system.cpu.dtb.flush_tlb_mva                        0                       # Number of times TLB was flushed by MVA
system.cpu.dtb.flush_tlb_mva_asid                   0                       # Number of times TLB was flushed by MVA & ASID
system.cpu.dtb.hits                                 0                       # DTB hits
system.cpu.dtb.inst_accesses                        0                       # ITB inst accesses
system.cpu.dtb.inst_hits                            0                       # ITB inst hits
system.cpu.dtb.inst_misses                          0                       # ITB inst misses
system.cpu.dtb.misses                               0                       # DTB misses
system.cpu.dtb.perms_faults                         0                       # Number of TLB faults due to permissions restrictions
system.cpu.dtb.prefetch_faults                      0                       # Number of TLB faults due to prefetch
system.cpu.dtb.read_accesses                        0                       # DTB read accesses
system.cpu.dtb.read_hits                            0                       # DTB read hits
system.cpu.dtb.read_misses                          0                       # DTB read misses
system.cpu.dtb.stage2_mmu.stage2_tlb.accesses            0                       # DTB accesses
system.cpu.dtb.stage2_mmu.stage2_tlb.align_faults            0                       # Number of TLB faults due to alignment restrictions
system.cpu.dtb.stage2_mmu.stage2_tlb.domain_faults            0                       # Number of TLB faults due to domain restrictions
system.cpu.dtb.stage2_mmu.stage2_tlb.flush_entries            0                       # Number of entries that have been flushed from TLB
system.cpu.dtb.stage2_mmu.stage2_tlb.flush_tlb            0                       # Number of times complete TLB was flushed
system.cpu.dtb.stage2_mmu.stage2_tlb.flush_tlb_asid            0                       # Number of times TLB was flushed by ASID
system.cpu.dtb.stage2_mmu.stage2_tlb.flush_tlb_mva            0                       # Number of times TLB was flushed by MVA
system.cpu.dtb.stage2_mmu.stage2_tlb.flush_tlb_mva_asid            0                       # Number of times TLB was flushed by MVA & ASID
system.cpu.dtb.stage2_mmu.stage2_tlb.hits            0                       # DTB hits
system.cpu.dtb.stage2_mmu.stage2_tlb.inst_accesses            0                       # ITB inst accesses
system.cpu.dtb.stage2_mmu.stage2_tlb.inst_hits            0                       # ITB inst hits
system.cpu.dtb.stage2_mmu.stage2_tlb.inst_misses            0                       # ITB inst misses
system.cpu.dtb.stage2_mmu.stage2_tlb.misses            0                       # DTB misses
system.cpu.dtb.stage2_mmu.stage2_tlb.perms_faults            0                       # Number of TLB faults due to permissions restrictions
system.cpu.dtb.stage2_mmu.stage2_tlb.prefetch_faults            0                       # Number of TLB faults due to prefetch
system.cpu.dtb.stage2_mmu.stage2_tlb.read_accesses            0                       # DTB read accesses
system.cpu.dtb.stage2_mmu.stage2_tlb.read_hits            0                       # DTB read hits
system.cpu.dtb.stage2_mmu.stage2_tlb.read_misses            0                       # DTB read misses
system.cpu.dtb.stage2_mmu.stage2_tlb.walker.walkRequestOrigin_Requested::Data            0                       # Table walker requests started/completed, data/inst
system.cpu.dtb.stage2_mmu.stage2_tlb.walker.walkRequestOrigin_Requested::Inst            0                       # Table walker requests started/completed, data/inst
system.cpu.dtb.stage2_mmu.stage2_tlb.walker.walkRequestOrigin_Requested::total            0                       # Table walker requests started/completed, data/inst
system.cpu.dtb.stage2_mmu.stage2_tlb.walker.walkRequestOrigin_Completed::Data            0                       # Table walker requests started/completed, data/inst
system.cpu.dtb.stage2_mmu.stage2_tlb.walker.walkRequestOrigin_Completed::Inst            0                       # Table walker requests started/completed, data/inst
system.cpu.dtb.stage2_mmu.stage2_tlb.walker.walkRequestOrigin_Completed::total            0                       # Table walker requests started/completed, data/inst
system.cpu.dtb.stage2_mmu.stage2_tlb.walker.walkRequestOrigin::total            0                       # Table walker requests started/completed, data/inst
system.cpu.dtb.stage2_mmu.stage2_tlb.walker.walks            0                       # Table walker walks requested
system.cpu.dtb.stage2_mmu.stage2_tlb.write_accesses            0                       # DTB write accesses
system.cpu.dtb.stage2_mmu.stage2_tlb.write_hits            0                       # DTB write hits
system.cpu.dtb.stage2_mmu.stage2_tlb.write_misses            0                       # DTB write misses
system.cpu.dtb.walker.walkRequestOrigin_Requested::Data            0                       # Table walker requests started/completed, data/inst
system.cpu.dtb.walker.walkRequestOrigin_Requested::Inst            0                       # Table walker requests started/completed, data/inst
system.cpu.dtb.walker.walkRequestOrigin_Requested::total            0                       # Table walker requests started/completed, data/inst
system.cpu.dtb.walker.walkRequestOrigin_Completed::Data            0                       # Table walker requests started/completed, data/inst
system.cpu.dtb.walker.walkRequestOrigin_Completed::Inst            0                       # Table walker requests started/completed, data/inst
system.cpu.dtb.walker.walkRequestOrigin_Completed::total            0                       # Table walker requests started/completed, data/inst
system.cpu.dtb.walker.walkRequestOrigin::total            0                       # Table walker requests started/completed, data/inst
system.cpu.dtb.walker.walks                         0                       # Table walker walks requested
system.cpu.dtb.write_accesses                       0                       # DTB write accesses
system.cpu.dtb.write_hits                           0                       # DTB write hits
system.cpu.dtb.write_misses                         0                       # DTB write misses
system.cpu.fetch.Branches                       12655                       # Number of branches that fetch encountered
system.cpu.fetch.CacheLines                      7321                       # Number of cache lines fetched
system.cpu.fetch.Cycles                         22785                       # Number of cycles fetch has run and was not squashing or blocked
system.cpu.fetch.IcacheSquashes                   890                       # Number of outstanding Icache misses that were squashed
system.cpu.fetch.IcacheWaitRetryStallCycles           98                       # Number of stall cycles due to full MSHR
system.cpu.fetch.Insts                          53479                       # Number of instructions fetch has processed
system.cpu.fetch.MiscStallCycles                   28                       # Number of cycles fetch has spent waiting on interrupts, or bad addresses, or out of MSHRs
system.cpu.fetch.PendingTrapStallCycles            99                       # Number of stall cycles due to pending traps
system.cpu.fetch.SquashCycles                    2944                       # Number of cycles fetch has spent squashing
system.cpu.fetch.branchRate                  0.097931                       # Number of branch fetches per cycle
system.cpu.fetch.icacheStallCycles              29543                       # Number of cycles fetch is stalled on an Icache miss
system.cpu.fetch.predictedBranches               5555                       # Number of branches that fetch has predicted taken
system.cpu.fetch.rate                        0.413847                       # Number of inst fetches per cycle
system.cpu.fetch.rateDist::samples              54025                       # Number of instructions fetched each cycle (Total)
system.cpu.fetch.rateDist::mean              1.195391                       # Number of instructions fetched each cycle (Total)
system.cpu.fetch.rateDist::stdev             2.505552                       # Number of instructions fetched each cycle (Total)
system.cpu.fetch.rateDist::underflows               0      0.00%      0.00% # Number of instructions fetched each cycle (Total)
system.cpu.fetch.rateDist::0                    41752     77.28%     77.28% # Number of instructions fetched each cycle (Total)
system.cpu.fetch.rateDist::1                     1073      1.99%     79.27% # Number of instructions fetched each cycle (Total)
system.cpu.fetch.rateDist::2                     1143      2.12%     81.38% # Number of instructions fetched each cycle (Total)
system.cpu.fetch.rateDist::3                     1048      1.94%     83.32% # Number of instructions fetched each cycle (Total)
system.cpu.fetch.rateDist::4                     2302      4.26%     87.59% # Number of instructions fetched each cycle (Total)
system.cpu.fetch.rateDist::5                      931      1.72%     89.31% # Number of instructions fetched each cycle (Total)
system.cpu.fetch.rateDist::6                      699      1.29%     90.60% # Number of instructions fetched each cycle (Total)
system.cpu.fetch.rateDist::7                      595      1.10%     91.70% # Number of instructions fetched each cycle (Total)
system.cpu.fetch.rateDist::8                     4482      8.30%    100.00% # Number of instructions fetched each cycle (Total)
system.cpu.fetch.rateDist::overflows                0      0.00%    100.00% # Number of instructions fetched each cycle (Total)
system.cpu.fetch.rateDist::min_value                0                       # Number of instructions fetched each cycle (Total)
system.cpu.fetch.rateDist::max_value                8                       # Number of instructions fetched each cycle (Total)
system.cpu.fetch.rateDist::total                54025                       # Number of instructions fetched each cycle (Total)
system.cpu.icache.prefetcher.num_hwpf_issued         2535                       # number of hwpf issued
system.cpu.icache.prefetcher.pfBufferHit          571                       # number of redundant prefetches already in prefetch queue
system.cpu.icache.prefetcher.pfIdentified         3439                       # number of prefetch candidates identified
system.cpu.icache.prefetcher.pfInCache              0                       # number of redundant prefetches already in cache/mshr dropped
system.cpu.icache.prefetcher.pfRemovedFull          142                       # number of prefetches dropped due to prefetch queue size
system.cpu.icache.prefetcher.pfSpanPage         35767                       # number of prefetches that crossed the page
system.cpu.idleCycles                           75199                       # Total number of cycles that the CPU has spent unscheduled due to idling
system.cpu.iew.branchMispredicts                 1078                       # Number of branch mispredicts detected at execute
system.cpu.iew.exec_branches                     8127                       # Number of branches executed
system.cpu.iew.exec_nop                           154                       # number of nop insts executed
system.cpu.iew.exec_rate                     0.350067                       # Inst execution rate
system.cpu.iew.exec_refs                        14232                       # number of memory reference insts executed
system.cpu.iew.exec_stores                       7628                       # Number of stores executed
system.cpu.iew.exec_swp                             0                       # number of swp insts executed
system.cpu.iew.iewBlockCycles                    2022                       # Number of cycles IEW is blocking
system.cpu.iew.iewDispLoadInsts                  6955                       # Number of dispatched load instructions
system.cpu.iew.iewDispNonSpecInsts                 67                       # Number of dispatched non-speculative instructions
system.cpu.iew.iewDispSquashedInsts               226                       # Number of squashed instructions skipped by dispatch
system.cpu.iew.iewDispStoreInsts                 8733                       # Number of dispatched store instructions
system.cpu.iew.iewDispatchedInsts               50358                       # Number of instructions dispatched to IQ
system.cpu.iew.iewExecLoadInsts                  6604                       # Number of load instructions executed
system.cpu.iew.iewExecSquashedInsts              1342                       # Number of squashed instructions skipped in execute
system.cpu.iew.iewExecutedInsts                 45237                       # Number of executed instructions
system.cpu.iew.iewIQFullEvents                     11                       # Number of times the IQ has become full, causing a stall
system.cpu.iew.iewIdleCycles                        0                       # Number of cycles IEW is idle
system.cpu.iew.iewLSQFullEvents                   747                       # Number of times the LSQ has become full, causing a stall
system.cpu.iew.iewSquashCycles                    990                       # Number of cycles IEW is squashing
system.cpu.iew.iewUnblockCycles                   752                       # Number of cycles IEW is unblocking
system.cpu.iew.lsq.thread0.blockedLoads             0                       # Number of blocked loads due to partial load-store forwarding
system.cpu.iew.lsq.thread0.cacheBlocked            94                       # Number of times an access to memory failed due to the cache being blocked
system.cpu.iew.lsq.thread0.forwLoads              101                       # Number of loads that had data forwarded from stores
system.cpu.iew.lsq.thread0.ignoredResponses            4                       # Number of memory responses ignored because the instruction is squashed
system.cpu.iew.lsq.thread0.invAddrLoads             0                       # Number of loads ignored due to an invalid address
system.cpu.iew.lsq.thread0.invAddrSwpfs             0                       # Number of software prefetches ignored due to an invalid address
system.cpu.iew.lsq.thread0.memOrderViolation           15                       # Number of memory ordering violations
system.cpu.iew.lsq.thread0.rescheduledLoads          122                       # Number of loads that were rescheduled
system.cpu.iew.lsq.thread0.squashedLoads         2429                       # Number of loads squashed
system.cpu.iew.lsq.thread0.squashedStores         2175                       # Number of stores squashed
system.cpu.iew.memOrderViolationEvents             15                       # Number of memory order violations
system.cpu.iew.predictedNotTakenIncorrect          940                       # Number of branches that were predicted not taken incorrectly
system.cpu.iew.predictedTakenIncorrect            138                       # Number of branches that were predicted taken incorrectly
system.cpu.iew.wb_consumers                     40592                       # num instructions consuming a value
system.cpu.iew.wb_count                         43572                       # cumulative count of insts written-back
system.cpu.iew.wb_fanout                     0.532371                       # average fanout of values written-back
system.cpu.iew.wb_producers                     21610                       # num instructions producing a value
system.cpu.iew.wb_rate                       0.337182                       # insts written-back per cycle
system.cpu.iew.wb_sent                          44305                       # cumulative count of insts sent to commit
system.cpu.int_regfile_reads                    51040                       # number of integer regfile reads
system.cpu.int_regfile_writes                   30177                       # number of integer regfile writes
system.cpu.ipc                               0.219216                       # IPC: Instructions Per Cycle
system.cpu.ipc_total                         0.219216                       # IPC: Total IPC of All Threads
system.cpu.iq.FU_type_0::No_OpClass                25      0.05%      0.05% # Type of FU issued
system.cpu.iq.FU_type_0::IntAlu                 31469     67.56%     67.61% # Type of FU issued
system.cpu.iq.FU_type_0::IntMult                   45      0.10%     67.71% # Type of FU issued
system.cpu.iq.FU_type_0::IntDiv                     2      0.00%     67.72% # Type of FU issued
system.cpu.iq.FU_type_0::FloatAdd                   0      0.00%     67.72% # Type of FU issued
system.cpu.iq.FU_type_0::FloatCmp                   0      0.00%     67.72% # Type of FU issued
system.cpu.iq.FU_type_0::FloatCvt                   0      0.00%     67.72% # Type of FU issued
system.cpu.iq.FU_type_0::FloatMult                  0      0.00%     67.72% # Type of FU issued
system.cpu.iq.FU_type_0::FloatMultAcc               0      0.00%     67.72% # Type of FU issued
system.cpu.iq.FU_type_0::FloatDiv                   0      0.00%     67.72% # Type of FU issued
system.cpu.iq.FU_type_0::FloatMisc                  0      0.00%     67.72% # Type of FU issued
system.cpu.iq.FU_type_0::FloatSqrt                  0      0.00%     67.72% # Type of FU issued
system.cpu.iq.FU_type_0::SimdAdd                   30      0.06%     67.78% # Type of FU issued
system.cpu.iq.FU_type_0::SimdAddAcc                 0      0.00%     67.78% # Type of FU issued
system.cpu.iq.FU_type_0::SimdAlu                   32      0.07%     67.85% # Type of FU issued
system.cpu.iq.FU_type_0::SimdCmp                   34      0.07%     67.92% # Type of FU issued
system.cpu.iq.FU_type_0::SimdCvt                    0      0.00%     67.92% # Type of FU issued
system.cpu.iq.FU_type_0::SimdMisc                  37      0.08%     68.00% # Type of FU issued
system.cpu.iq.FU_type_0::SimdMult                   0      0.00%     68.00% # Type of FU issued
system.cpu.iq.FU_type_0::SimdMultAcc                0      0.00%     68.00% # Type of FU issued
system.cpu.iq.FU_type_0::SimdShift                  0      0.00%     68.00% # Type of FU issued
system.cpu.iq.FU_type_0::SimdShiftAcc               0      0.00%     68.00% # Type of FU issued
system.cpu.iq.FU_type_0::SimdDiv                    0      0.00%     68.00% # Type of FU issued
system.cpu.iq.FU_type_0::SimdSqrt                   0      0.00%     68.00% # Type of FU issued
system.cpu.iq.FU_type_0::SimdFloatAdd               0      0.00%     68.00% # Type of FU issued
system.cpu.iq.FU_type_0::SimdFloatAlu               0      0.00%     68.00% # Type of FU issued
system.cpu.iq.FU_type_0::SimdFloatCmp               0      0.00%     68.00% # Type of FU issued
system.cpu.iq.FU_type_0::SimdFloatCvt               0      0.00%     68.00% # Type of FU issued
system.cpu.iq.FU_type_0::SimdFloatDiv               0      0.00%     68.00% # Type of FU issued
system.cpu.iq.FU_type_0::SimdFloatMisc              0      0.00%     68.00% # Type of FU issued
system.cpu.iq.FU_type_0::SimdFloatMult              0      0.00%     68.00% # Type of FU issued
system.cpu.iq.FU_type_0::SimdFloatMultAcc            0      0.00%     68.00% # Type of FU issued
system.cpu.iq.FU_type_0::SimdFloatSqrt              0      0.00%     68.00% # Type of FU issued
system.cpu.iq.FU_type_0::SimdReduceAdd              0      0.00%     68.00% # Type of FU issued
system.cpu.iq.FU_type_0::SimdReduceAlu              0      0.00%     68.00% # Type of FU issued
system.cpu.iq.FU_type_0::SimdReduceCmp              0      0.00%     68.00% # Type of FU issued
system.cpu.iq.FU_type_0::SimdFloatReduceAdd            0      0.00%     68.00% # Type of FU issued
system.cpu.iq.FU_type_0::SimdFloatReduceCmp            0      0.00%     68.00% # Type of FU issued
system.cpu.iq.FU_type_0::SimdAes                    0      0.00%     68.00% # Type of FU issued
system.cpu.iq.FU_type_0::SimdAesMix                 0      0.00%     68.00% # Type of FU issued
system.cpu.iq.FU_type_0::SimdSha1Hash               0      0.00%     68.00% # Type of FU issued
system.cpu.iq.FU_type_0::SimdSha1Hash2              0      0.00%     68.00% # Type of FU issued
system.cpu.iq.FU_type_0::SimdSha256Hash             0      0.00%     68.00% # Type of FU issued
system.cpu.iq.FU_type_0::SimdSha256Hash2            0      0.00%     68.00% # Type of FU issued
system.cpu.iq.FU_type_0::SimdShaSigma2              0      0.00%     68.00% # Type of FU issued
system.cpu.iq.FU_type_0::SimdShaSigma3              0      0.00%     68.00% # Type of FU issued
system.cpu.iq.FU_type_0::SimdPredAlu                0      0.00%     68.00% # Type of FU issued
system.cpu.iq.FU_type_0::MemRead                 6902     14.82%     82.82% # Type of FU issued
system.cpu.iq.FU_type_0::MemWrite                8003     17.18%    100.00% # Type of FU issued
system.cpu.iq.FU_type_0::FloatMemRead               0      0.00%    100.00% # Type of FU issued
system.cpu.iq.FU_type_0::FloatMemWrite              0      0.00%    100.00% # Type of FU issued
system.cpu.iq.FU_type_0::IprAccess                  0      0.00%    100.00% # Type of FU issued
system.cpu.iq.FU_type_0::InstPrefetch               0      0.00%    100.00% # Type of FU issued
system.cpu.iq.FU_type_0::total                  46579                       # Type of FU issued
system.cpu.iq.fp_alu_accesses                       0                       # Number of floating point alu accesses
system.cpu.iq.fp_inst_queue_reads                   0                       # Number of floating instruction queue reads
system.cpu.iq.fp_inst_queue_wakeup_accesses            0                       # Number of floating instruction queue wakeup accesses
system.cpu.iq.fp_inst_queue_writes                  0                       # Number of floating instruction queue writes
system.cpu.iq.fu_busy_cnt                         628                       # FU busy when requested
system.cpu.iq.fu_busy_rate                   0.013482                       # FU busy rate (busy events/executed inst)
system.cpu.iq.fu_full::No_OpClass                   0      0.00%      0.00% # attempts to use FU when none available
system.cpu.iq.fu_full::IntAlu                     218     34.71%     34.71% # attempts to use FU when none available
system.cpu.iq.fu_full::IntMult                      0      0.00%     34.71% # attempts to use FU when none available
system.cpu.iq.fu_full::IntDiv                       0      0.00%     34.71% # attempts to use FU when none available
system.cpu.iq.fu_full::FloatAdd                     0      0.00%     34.71% # attempts to use FU when none available
system.cpu.iq.fu_full::FloatCmp                     0      0.00%     34.71% # attempts to use FU when none available
system.cpu.iq.fu_full::FloatCvt                     0      0.00%     34.71% # attempts to use FU when none available
system.cpu.iq.fu_full::FloatMult                    0      0.00%     34.71% # attempts to use FU when none available
system.cpu.iq.fu_full::FloatMultAcc                 0      0.00%     34.71% # attempts to use FU when none available
system.cpu.iq.fu_full::FloatDiv                     0      0.00%     34.71% # attempts to use FU when none available
system.cpu.iq.fu_full::FloatMisc                    0      0.00%     34.71% # attempts to use FU when none available
system.cpu.iq.fu_full::FloatSqrt                    0      0.00%     34.71% # attempts to use FU when none available
system.cpu.iq.fu_full::SimdAdd                      0      0.00%     34.71% # attempts to use FU when none available
system.cpu.iq.fu_full::SimdAddAcc                   0      0.00%     34.71% # attempts to use FU when none available
system.cpu.iq.fu_full::SimdAlu                      1      0.16%     34.87% # attempts to use FU when none available
system.cpu.iq.fu_full::SimdCmp                      2      0.32%     35.19% # attempts to use FU when none available
system.cpu.iq.fu_full::SimdCvt                      0      0.00%     35.19% # attempts to use FU when none available
system.cpu.iq.fu_full::SimdMisc                     0      0.00%     35.19% # attempts to use FU when none available
system.cpu.iq.fu_full::SimdMult                     0      0.00%     35.19% # attempts to use FU when none available
system.cpu.iq.fu_full::SimdMultAcc                  0      0.00%     35.19% # attempts to use FU when none available
system.cpu.iq.fu_full::SimdShift                    0      0.00%     35.19% # attempts to use FU when none available
system.cpu.iq.fu_full::SimdShiftAcc                 0      0.00%     35.19% # attempts to use FU when none available
system.cpu.iq.fu_full::SimdDiv                      0      0.00%     35.19% # attempts to use FU when none available
system.cpu.iq.fu_full::SimdSqrt                     0      0.00%     35.19% # attempts to use FU when none available
system.cpu.iq.fu_full::SimdFloatAdd                 0      0.00%     35.19% # attempts to use FU when none available
system.cpu.iq.fu_full::SimdFloatAlu                 0      0.00%     35.19% # attempts to use FU when none available
system.cpu.iq.fu_full::SimdFloatCmp                 0      0.00%     35.19% # attempts to use FU when none available
system.cpu.iq.fu_full::SimdFloatCvt                 0      0.00%     35.19% # attempts to use FU when none available
system.cpu.iq.fu_full::SimdFloatDiv                 0      0.00%     35.19% # attempts to use FU when none available
system.cpu.iq.fu_full::SimdFloatMisc                0      0.00%     35.19% # attempts to use FU when none available
system.cpu.iq.fu_full::SimdFloatMult                0      0.00%     35.19% # attempts to use FU when none available
system.cpu.iq.fu_full::SimdFloatMultAcc             0      0.00%     35.19% # attempts to use FU when none available
system.cpu.iq.fu_full::SimdFloatSqrt                0      0.00%     35.19% # attempts to use FU when none available
system.cpu.iq.fu_full::SimdReduceAdd                0      0.00%     35.19% # attempts to use FU when none available
system.cpu.iq.fu_full::SimdReduceAlu                0      0.00%     35.19% # attempts to use FU when none available
system.cpu.iq.fu_full::SimdReduceCmp                0      0.00%     35.19% # attempts to use FU when none available
system.cpu.iq.fu_full::SimdFloatReduceAdd            0      0.00%     35.19% # attempts to use FU when none available
system.cpu.iq.fu_full::SimdFloatReduceCmp            0      0.00%     35.19% # attempts to use FU when none available
system.cpu.iq.fu_full::SimdAes                      0      0.00%     35.19% # attempts to use FU when none available
system.cpu.iq.fu_full::SimdAesMix                   0      0.00%     35.19% # attempts to use FU when none available
system.cpu.iq.fu_full::SimdSha1Hash                 0      0.00%     35.19% # attempts to use FU when none available
system.cpu.iq.fu_full::SimdSha1Hash2                0      0.00%     35.19% # attempts to use FU when none available
system.cpu.iq.fu_full::SimdSha256Hash               0      0.00%     35.19% # attempts to use FU when none available
system.cpu.iq.fu_full::SimdSha256Hash2              0      0.00%     35.19% # attempts to use FU when none available
system.cpu.iq.fu_full::SimdShaSigma2                0      0.00%     35.19% # attempts to use FU when none available
system.cpu.iq.fu_full::SimdShaSigma3                0      0.00%     35.19% # attempts to use FU when none available
system.cpu.iq.fu_full::SimdPredAlu                  0      0.00%     35.19% # attempts to use FU when none available
system.cpu.iq.fu_full::MemRead                    175     27.87%     63.06% # attempts to use FU when none available
system.cpu.iq.fu_full::MemWrite                   232     36.94%    100.00% # attempts to use FU when none available
system.cpu.iq.fu_full::FloatMemRead                 0      0.00%    100.00% # attempts to use FU when none available
system.cpu.iq.fu_full::FloatMemWrite                0      0.00%    100.00% # attempts to use FU when none available
system.cpu.iq.fu_full::IprAccess                    0      0.00%    100.00% # attempts to use FU when none available
system.cpu.iq.fu_full::InstPrefetch                 0      0.00%    100.00% # attempts to use FU when none available
system.cpu.iq.int_alu_accesses                  46407                       # Number of integer alu accesses
system.cpu.iq.int_inst_queue_reads             146428                       # Number of integer instruction queue reads
system.cpu.iq.int_inst_queue_wakeup_accesses        42979                       # Number of integer instruction queue wakeup accesses
system.cpu.iq.int_inst_queue_writes             63662                       # Number of integer instruction queue writes
system.cpu.iq.iqInstsAdded                      50137                       # Number of instructions added to the IQ (excludes non-spec)
system.cpu.iq.iqInstsIssued                     46579                       # Number of instructions issued
system.cpu.iq.iqNonSpecInstsAdded                  67                       # Number of non-speculative instructions added to the IQ
system.cpu.iq.iqSquashedInstsExamined           14936                       # Number of squashed instructions iterated over during squash; mainly for profiling
system.cpu.iq.iqSquashedInstsIssued               270                       # Number of squashed instructions issued
system.cpu.iq.iqSquashedNonSpecRemoved             20                       # Number of squashed non-spec instructions that were removed
system.cpu.iq.iqSquashedOperandsExamined         9884                       # Number of squashed operands that are examined and possibly removed from graph
system.cpu.iq.issued_per_cycle::samples         54025                       # Number of insts issued each cycle
system.cpu.iq.issued_per_cycle::mean         0.862175                       # Number of insts issued each cycle
system.cpu.iq.issued_per_cycle::stdev        1.693828                       # Number of insts issued each cycle
system.cpu.iq.issued_per_cycle::underflows            0      0.00%      0.00% # Number of insts issued each cycle
system.cpu.iq.issued_per_cycle::0               38976     72.14%     72.14% # Number of insts issued each cycle
system.cpu.iq.issued_per_cycle::1                3713      6.87%     79.02% # Number of insts issued each cycle
system.cpu.iq.issued_per_cycle::2                3108      5.75%     84.77% # Number of insts issued each cycle
system.cpu.iq.issued_per_cycle::3                2338      4.33%     89.10% # Number of insts issued each cycle
system.cpu.iq.issued_per_cycle::4                2753      5.10%     94.19% # Number of insts issued each cycle
system.cpu.iq.issued_per_cycle::5                1391      2.57%     96.77% # Number of insts issued each cycle
system.cpu.iq.issued_per_cycle::6                 944      1.75%     98.52% # Number of insts issued each cycle
system.cpu.iq.issued_per_cycle::7                 411      0.76%     99.28% # Number of insts issued each cycle
system.cpu.iq.issued_per_cycle::8                 391      0.72%    100.00% # Number of insts issued each cycle
system.cpu.iq.issued_per_cycle::overflows            0      0.00%    100.00% # Number of insts issued each cycle
system.cpu.iq.issued_per_cycle::min_value            0                       # Number of insts issued each cycle
system.cpu.iq.issued_per_cycle::max_value            8                       # Number of insts issued each cycle
system.cpu.iq.issued_per_cycle::total           54025                       # Number of insts issued each cycle
system.cpu.iq.rate                           0.360452                       # Inst issue rate
system.cpu.iq.vec_alu_accesses                    775                       # Number of vector alu accesses
system.cpu.iq.vec_inst_queue_reads               1653                       # Number of vector instruction queue reads
system.cpu.iq.vec_inst_queue_wakeup_accesses          593                       # Number of vector instruction queue wakeup accesses
system.cpu.iq.vec_inst_queue_writes              1493                       # Number of vector instruction queue writes
system.cpu.itb.accesses                             0                       # DTB accesses
system.cpu.itb.align_faults                         0                       # Number of TLB faults due to alignment restrictions
system.cpu.itb.domain_faults                        0                       # Number of TLB faults due to domain restrictions
system.cpu.itb.flush_entries                        0                       # Number of entries that have been flushed from TLB
system.cpu.itb.flush_tlb                            0                       # Number of times complete TLB was flushed
system.cpu.itb.flush_tlb_asid                       0                       # Number of times TLB was flushed by ASID
system.cpu.itb.flush_tlb_mva                        0                       # Number of times TLB was flushed by MVA
system.cpu.itb.flush_tlb_mva_asid                   0                       # Number of times TLB was flushed by MVA & ASID
system.cpu.itb.hits                                 0                       # DTB hits
system.cpu.itb.inst_accesses                        0                       # ITB inst accesses
system.cpu.itb.inst_hits                            0                       # ITB inst hits
system.cpu.itb.inst_misses                          0                       # ITB inst misses
system.cpu.itb.misses                               0                       # DTB misses
system.cpu.itb.perms_faults                         0                       # Number of TLB faults due to permissions restrictions
system.cpu.itb.prefetch_faults                      0                       # Number of TLB faults due to prefetch
system.cpu.itb.read_accesses                        0                       # DTB read accesses
system.cpu.itb.read_hits                            0                       # DTB read hits
system.cpu.itb.read_misses                          0                       # DTB read misses
system.cpu.itb.stage2_mmu.stage2_tlb.accesses            0                       # DTB accesses
system.cpu.itb.stage2_mmu.stage2_tlb.align_faults            0                       # Number of TLB faults due to alignment restrictions
system.cpu.itb.stage2_mmu.stage2_tlb.domain_faults            0                       # Number of TLB faults due to domain restrictions
system.cpu.itb.stage2_mmu.stage2_tlb.flush_entries            0                       # Number of entries that have been flushed from TLB
system.cpu.itb.stage2_mmu.stage2_tlb.flush_tlb            0                       # Number of times complete TLB was flushed
system.cpu.itb.stage2_mmu.stage2_tlb.flush_tlb_asid            0                       # Number of times TLB was flushed by ASID
system.cpu.itb.stage2_mmu.stage2_tlb.flush_tlb_mva            0                       # Number of times TLB was flushed by MVA
system.cpu.itb.stage2_mmu.stage2_tlb.flush_tlb_mva_asid            0                       # Number of times TLB was flushed by MVA & ASID
system.cpu.itb.stage2_mmu.stage2_tlb.hits            0                       # DTB hits
system.cpu.itb.stage2_mmu.stage2_tlb.inst_accesses            0                       # ITB inst accesses
system.cpu.itb.stage2_mmu.stage2_tlb.inst_hits            0                       # ITB inst hits
system.cpu.itb.stage2_mmu.stage2_tlb.inst_misses            0                       # ITB inst misses
system.cpu.itb.stage2_mmu.stage2_tlb.misses            0                       # DTB misses
system.cpu.itb.stage2_mmu.stage2_tlb.perms_faults            0                       # Number of TLB faults due to permissions restrictions
system.cpu.itb.stage2_mmu.stage2_tlb.prefetch_faults            0                       # Number of TLB faults due to prefetch
system.cpu.itb.stage2_mmu.stage2_tlb.read_accesses            0                       # DTB read accesses
system.cpu.itb.stage2_mmu.stage2_tlb.read_hits            0                       # DTB read hits
system.cpu.itb.stage2_mmu.stage2_tlb.read_misses            0                       # DTB read misses
system.cpu.itb.stage2_mmu.stage2_tlb.walker.walkRequestOrigin_Requested::Data            0                       # Table walker requests started/completed, data/inst
system.cpu.itb.stage2_mmu.stage2_tlb.walker.walkRequestOrigin_Requested::Inst            0                       # Table walker requests started/completed, data/inst
system.cpu.itb.stage2_mmu.stage2_tlb.walker.walkRequestOrigin_Requested::total            0                       # Table walker requests started/completed, data/inst
system.cpu.itb.stage2_mmu.stage2_tlb.walker.walkRequestOrigin_Completed::Data            0                       # Table walker requests started/completed, data/inst
system.cpu.itb.stage2_mmu.stage2_tlb.walker.walkRequestOrigin_Completed::Inst            0                       # Table walker requests started/completed, data/inst
system.cpu.itb.stage2_mmu.stage2_tlb.walker.walkRequestOrigin_Completed::total            0                       # Table walker requests started/completed, data/inst
system.cpu.itb.stage2_mmu.stage2_tlb.walker.walkRequestOrigin::total            0                       # Table walker requests started/completed, data/inst
system.cpu.itb.stage2_mmu.stage2_tlb.walker.walks            0                       # Table walker walks requested
system.cpu.itb.stage2_mmu.stage2_tlb.write_accesses            0                       # DTB write accesses
system.cpu.itb.stage2_mmu.stage2_tlb.write_hits            0                       # DTB write hits
system.cpu.itb.stage2_mmu.stage2_tlb.write_misses            0                       # DTB write misses
system.cpu.itb.walker.walkRequestOrigin_Requested::Data            0                       # Table walker requests started/completed, data/inst
system.cpu.itb.walker.walkRequestOrigin_Requested::Inst            0                       # Table walker requests started/completed, data/inst
system.cpu.itb.walker.walkRequestOrigin_Requested::total            0                       # Table walker requests started/completed, data/inst
system.cpu.itb.walker.walkRequestOrigin_Completed::Data            0                       # Table walker requests started/completed, data/inst
system.cpu.itb.walker.walkRequestOrigin_Completed::Inst            0                       # Table walker requests started/completed, data/inst
system.cpu.itb.walker.walkRequestOrigin_Completed::total            0                       # Table walker requests started/completed, data/inst
system.cpu.itb.walker.walkRequestOrigin::total            0                       # Table walker requests started/completed, data/inst
system.cpu.itb.walker.walks                         0                       # Table walker walks requested
system.cpu.itb.write_accesses                       0                       # DTB write accesses
system.cpu.itb.write_hits                           0                       # DTB write hits
system.cpu.itb.write_misses                         0                       # DTB write misses
system.cpu.memDep0.conflictingLoads                18                       # Number of conflicting loads.
system.cpu.memDep0.conflictingStores               32                       # Number of conflicting stores.
system.cpu.memDep0.insertedLoads                 6955                       # Number of loads inserted to the mem dependence unit.
system.cpu.memDep0.insertedStores                8733                       # Number of stores inserted to the mem dependence unit.
system.cpu.misc_regfile_reads                   35177                       # number of misc regfile reads
system.cpu.misc_regfile_writes                     81                       # number of misc regfile writes
system.cpu.numCycles                           129224                       # number of cpu cycles simulated
system.cpu.numWorkItemsCompleted                    0                       # number of work items this cpu completed
system.cpu.numWorkItemsStarted                      0                       # number of work items this cpu started
system.cpu.rename.BlockCycles                    3115                       # Number of cycles rename is blocking
system.cpu.rename.CommittedMaps                 34401                       # Number of HB maps that are committed
system.cpu.rename.IQFullEvents                     63                       # Number of times rename has blocked due to IQ full
system.cpu.rename.IdleCycles                    26718                       # Number of cycles rename is idle
system.cpu.rename.LQFullEvents                    189                       # Number of times rename has blocked due to LQ full
system.cpu.rename.ROBFullEvents                    18                       # Number of times rename has blocked due to ROB full
system.cpu.rename.RenameLookups                 79701                       # Number of register rename lookups that rename has made
system.cpu.rename.RenamedInsts                  53336                       # Number of instructions processed by rename
system.cpu.rename.RenamedOperands               50968                       # Number of destination operands rename has renamed
system.cpu.rename.RunCycles                      9227                       # Number of cycles rename is running
system.cpu.rename.SQFullEvents                   4847                       # Number of times rename has blocked due to SQ full
system.cpu.rename.SquashCycles                    990                       # Number of cycles rename is squashing
system.cpu.rename.UnblockCycles                  5434                       # Number of cycles rename is unblocking
system.cpu.rename.UndoneMaps                    16567                       # Number of HB maps that are undone due to squashing
system.cpu.rename.int_rename_lookups            60105                       # Number of integer rename lookups
system.cpu.rename.serializeStallCycles           8541                       # count of cycles rename stalled for serializing inst
system.cpu.rename.serializingInsts                298                       # count of serializing insts renamed
system.cpu.rename.skidInsts                      3927                       # count of insts added to the skid buffer
system.cpu.rename.tempSerializingInsts             68                       # count of temporary serializing insts renamed
system.cpu.rename.vec_rename_lookups             1097                       # Number of vector rename lookups
system.cpu.rob.rob_reads                       100170                       # The number of ROB reads
system.cpu.rob.rob_writes                      103034                       # The number of ROB writes
system.cpu.timesIdled                             847                       # Number of times that the entire CPU went into an idle state and unscheduled itself
system.cpu.vec_regfile_reads                      649                       # number of vector regfile reads
system.cpu.vec_regfile_writes                     155                       # number of vector regfile writes
system.cpu.workload.numSyscalls                    26                       # Number of system calls
system.membus.snoop_filter.hit_multi_requests            0                       # Number of requests hitting in the snoop filter with multiple (>1) holders of the requested data.
system.membus.snoop_filter.hit_multi_snoops            0                       # Number of snoops hitting in the snoop filter with multiple (>1) holders of the requested data.
system.membus.snoop_filter.hit_single_requests            0                       # Number of requests hitting in the snoop filter with a single holder of the requested data.
system.membus.snoop_filter.hit_single_snoops            0                       # Number of snoops hitting in the snoop filter with a single holder of the requested data.
system.membus.snoop_filter.tot_requests          1339                       # Total number of requests made to the snoop filter.
system.membus.snoop_filter.tot_snoops               0                       # Total number of snoops made to the snoop filter.
system.tol2bus.snoop_filter.hit_multi_requests            5                       # Number of requests hitting in the snoop filter with multiple (>1) holders of the requested data.
system.tol2bus.snoop_filter.hit_multi_snoops            0                       # Number of snoops hitting in the snoop filter with multiple (>1) holders of the requested data.
system.tol2bus.snoop_filter.hit_single_requests         1705                       # Number of requests hitting in the snoop filter with a single holder of the requested data.
system.tol2bus.snoop_filter.hit_single_snoops            0                       # Number of snoops hitting in the snoop filter with a single holder of the requested data.
system.tol2bus.snoop_filter.tot_requests         4005                       # Total number of requests made to the snoop filter.
system.tol2bus.snoop_filter.tot_snoops              0                       # Total number of snoops made to the snoop filter.
system.membus.trans_dist::ReadResp               1032                       # Transaction distribution
system.membus.trans_dist::ReadExReq               244                       # Transaction distribution
system.membus.trans_dist::ReadExResp              244                       # Transaction distribution
system.membus.trans_dist::ReadSharedReq          1032                       # Transaction distribution
system.membus.trans_dist::InvalidateReq            63                       # Transaction distribution
system.membus.pkt_count_system.l2.mem_side::system.mem_ctrls.port         2615                       # Packet count per connected master and slave (bytes)
system.membus.pkt_count::total                   2615                       # Packet count per connected master and slave (bytes)
system.membus.pkt_size_system.l2.mem_side::system.mem_ctrls.port        81664                       # Cumulative packet size per connected master and slave (bytes)
system.membus.pkt_size::total                   81664                       # Cumulative packet size per connected master and slave (bytes)
system.membus.snoops                                0                       # Total snoops (count)
system.membus.snoopTraffic                          0                       # Total snoop traffic (bytes)
system.membus.snoop_fanout::samples              1339                       # Request fanout histogram
system.membus.snoop_fanout::mean                    0                       # Request fanout histogram
system.membus.snoop_fanout::stdev                   0                       # Request fanout histogram
system.membus.snoop_fanout::underflows              0      0.00%      0.00% # Request fanout histogram
system.membus.snoop_fanout::0                    1339    100.00%    100.00% # Request fanout histogram
system.membus.snoop_fanout::1                       0      0.00%    100.00% # Request fanout histogram
system.membus.snoop_fanout::overflows               0      0.00%    100.00% # Request fanout histogram
system.membus.snoop_fanout::min_value               0                       # Request fanout histogram
system.membus.snoop_fanout::max_value               0                       # Request fanout histogram
system.membus.snoop_fanout::total                1339                       # Request fanout histogram
system.membus.reqLayer0.occupancy             1658000                       # Layer occupancy (ticks)
system.membus.reqLayer0.utilization               2.6                       # Layer utilization (%)
system.membus.respLayer1.occupancy            6762500                       # Layer occupancy (ticks)
system.membus.respLayer1.utilization             10.5                       # Layer utilization (%)
system.membus.power_state.pwrStateResidencyTicks::UNDEFINED     64611500                       # Cumulative time (in ticks) in various power states
system.tol2bus.trans_dist::ReadResp              1992                       # Transaction distribution
system.tol2bus.trans_dist::WritebackDirty           18                       # Transaction distribution
system.tol2bus.trans_dist::WritebackClean         1678                       # Transaction distribution
system.tol2bus.trans_dist::CleanEvict               9                       # Transaction distribution
system.tol2bus.trans_dist::ReadExReq              244                       # Transaction distribution
system.tol2bus.trans_dist::ReadExResp             244                       # Transaction distribution
system.tol2bus.trans_dist::ReadCleanReq          1808                       # Transaction distribution
system.tol2bus.trans_dist::ReadSharedReq          185                       # Transaction distribution
system.tol2bus.trans_dist::InvalidateReq           63                       # Transaction distribution
system.tol2bus.trans_dist::InvalidateResp           63                       # Transaction distribution
system.tol2bus.pkt_count_system.cpu.icache.mem_side::system.l2.cpu_side         5293                       # Packet count per connected master and slave (bytes)
system.tol2bus.pkt_count_system.cpu.dcache.mem_side::system.l2.cpu_side         1011                       # Packet count per connected master and slave (bytes)
system.tol2bus.pkt_count::total                  6304                       # Packet count per connected master and slave (bytes)
system.tol2bus.pkt_size_system.cpu.icache.mem_side::system.l2.cpu_side       223040                       # Cumulative packet size per connected master and slave (bytes)
system.tol2bus.pkt_size_system.cpu.dcache.mem_side::system.l2.cpu_side        28608                       # Cumulative packet size per connected master and slave (bytes)
system.tol2bus.pkt_size::total                 251648                       # Cumulative packet size per connected master and slave (bytes)
system.tol2bus.snoops                               0                       # Total snoops (count)
system.tol2bus.snoopTraffic                         0                       # Total snoop traffic (bytes)
system.tol2bus.snoop_fanout::samples             2300                       # Request fanout histogram
system.tol2bus.snoop_fanout::mean            0.002174                       # Request fanout histogram
system.tol2bus.snoop_fanout::stdev           0.046585                       # Request fanout histogram
system.tol2bus.snoop_fanout::underflows             0      0.00%      0.00% # Request fanout histogram
system.tol2bus.snoop_fanout::0                   2295     99.78%     99.78% # Request fanout histogram
system.tol2bus.snoop_fanout::1                      5      0.22%    100.00% # Request fanout histogram
system.tol2bus.snoop_fanout::2                      0      0.00%    100.00% # Request fanout histogram
system.tol2bus.snoop_fanout::overflows              0      0.00%    100.00% # Request fanout histogram
system.tol2bus.snoop_fanout::min_value              0                       # Request fanout histogram
system.tol2bus.snoop_fanout::max_value              1                       # Request fanout histogram
system.tol2bus.snoop_fanout::total               2300                       # Request fanout histogram
system.tol2bus.reqLayer0.occupancy            3922204                       # Layer occupancy (ticks)
system.tol2bus.reqLayer0.utilization              6.1                       # Layer utilization (%)
system.tol2bus.respLayer1.occupancy            675998                       # Layer occupancy (ticks)
system.tol2bus.respLayer1.utilization             1.0                       # Layer utilization (%)
system.tol2bus.respLayer0.occupancy           2710500                       # Layer occupancy (ticks)
system.tol2bus.respLayer0.utilization             4.2                       # Layer utilization (%)
system.tol2bus.power_state.pwrStateResidencyTicks::UNDEFINED     64611500                       # Cumulative time (in ticks) in various power states
system.voltage_domain.voltage                       1                       # Voltage in Volts
system.clk_domain.clock                          1000                       # Clock period in ticks
system.l2.demand_hits::.cpu.inst                  327                       # number of demand (read+write) hits
system.l2.demand_hits::.cpu.data                    6                       # number of demand (read+write) hits
system.l2.demand_hits::.cpu.icache.prefetcher          627                       # number of demand (read+write) hits
system.l2.demand_hits::total                      960                       # number of demand (read+write) hits
system.l2.overall_hits::.cpu.inst                 327                       # number of overall hits
system.l2.overall_hits::.cpu.data                   6                       # number of overall hits
system.l2.overall_hits::.cpu.icache.prefetcher          627                       # number of overall hits
system.l2.overall_hits::total                     960                       # number of overall hits
system.l2.demand_misses::.cpu.inst                854                       # number of demand (read+write) misses
system.l2.demand_misses::.cpu.data                423                       # number of demand (read+write) misses
system.l2.demand_misses::total                   1277                       # number of demand (read+write) misses
system.l2.overall_misses::.cpu.inst               854                       # number of overall misses
system.l2.overall_misses::.cpu.data               423                       # number of overall misses
system.l2.overall_misses::total                  1277                       # number of overall misses
system.l2.demand_miss_latency::.cpu.inst     66878500                       # number of demand (read+write) miss cycles
system.l2.demand_miss_latency::.cpu.data     35893500                       # number of demand (read+write) miss cycles
system.l2.demand_miss_latency::total        102772000                       # number of demand (read+write) miss cycles
system.l2.overall_miss_latency::.cpu.inst     66878500                       # number of overall miss cycles
system.l2.overall_miss_latency::.cpu.data     35893500                       # number of overall miss cycles
system.l2.overall_miss_latency::total       102772000                       # number of overall miss cycles
system.l2.demand_accesses::.cpu.inst             1181                       # number of demand (read+write) accesses
system.l2.demand_accesses::.cpu.data              429                       # number of demand (read+write) accesses
system.l2.demand_accesses::.cpu.icache.prefetcher          627                       # number of demand (read+write) accesses
system.l2.demand_accesses::total                 2237                       # number of demand (read+write) accesses
system.l2.overall_accesses::.cpu.inst            1181                       # number of overall (read+write) accesses
system.l2.overall_accesses::.cpu.data             429                       # number of overall (read+write) accesses
system.l2.overall_accesses::.cpu.icache.prefetcher          627                       # number of overall (read+write) accesses
system.l2.overall_accesses::total                2237                       # number of overall (read+write) accesses
system.l2.demand_miss_rate::.cpu.inst        0.723116                       # miss rate for demand accesses
system.l2.demand_miss_rate::.cpu.data        0.986014                       # miss rate for demand accesses
system.l2.demand_miss_rate::total            0.570854                       # miss rate for demand accesses
system.l2.overall_miss_rate::.cpu.inst       0.723116                       # miss rate for overall accesses
system.l2.overall_miss_rate::.cpu.data       0.986014                       # miss rate for overall accesses
system.l2.overall_miss_rate::total           0.570854                       # miss rate for overall accesses
system.l2.demand_avg_miss_latency::.cpu.inst 78312.060890                       # average overall miss latency
system.l2.demand_avg_miss_latency::.cpu.data 84854.609929                       # average overall miss latency
system.l2.demand_avg_miss_latency::total 80479.248238                       # average overall miss latency
system.l2.overall_avg_miss_latency::.cpu.inst 78312.060890                       # average overall miss latency
system.l2.overall_avg_miss_latency::.cpu.data 84854.609929                       # average overall miss latency
system.l2.overall_avg_miss_latency::total 80479.248238                       # average overall miss latency
system.l2.blocked_cycles::no_mshrs                  0                       # number of cycles access was blocked
system.l2.blocked_cycles::no_targets                0                       # number of cycles access was blocked
system.l2.blocked::no_mshrs                         0                       # number of cycles access was blocked
system.l2.blocked::no_targets                       0                       # number of cycles access was blocked
system.l2.avg_blocked_cycles::no_mshrs            nan                       # average number of cycles each access was blocked
system.l2.avg_blocked_cycles::no_targets          nan                       # average number of cycles each access was blocked
system.l2.demand_mshr_misses::.cpu.inst           854                       # number of demand (read+write) MSHR misses
system.l2.demand_mshr_misses::.cpu.data           423                       # number of demand (read+write) MSHR misses
system.l2.demand_mshr_misses::total              1277                       # number of demand (read+write) MSHR misses
system.l2.overall_mshr_misses::.cpu.inst          854                       # number of overall MSHR misses
system.l2.overall_mshr_misses::.cpu.data          423                       # number of overall MSHR misses
system.l2.overall_mshr_misses::total             1277                       # number of overall MSHR misses
system.l2.demand_mshr_miss_latency::.cpu.inst     58348500                       # number of demand (read+write) MSHR miss cycles
system.l2.demand_mshr_miss_latency::.cpu.data     31663500                       # number of demand (read+write) MSHR miss cycles
system.l2.demand_mshr_miss_latency::total     90012000                       # number of demand (read+write) MSHR miss cycles
system.l2.overall_mshr_miss_latency::.cpu.inst     58348500                       # number of overall MSHR miss cycles
system.l2.overall_mshr_miss_latency::.cpu.data     31663500                       # number of overall MSHR miss cycles
system.l2.overall_mshr_miss_latency::total     90012000                       # number of overall MSHR miss cycles
system.l2.demand_mshr_miss_rate::.cpu.inst     0.723116                       # mshr miss rate for demand accesses
system.l2.demand_mshr_miss_rate::.cpu.data     0.986014                       # mshr miss rate for demand accesses
system.l2.demand_mshr_miss_rate::total       0.570854                       # mshr miss rate for demand accesses
system.l2.overall_mshr_miss_rate::.cpu.inst     0.723116                       # mshr miss rate for overall accesses
system.l2.overall_mshr_miss_rate::.cpu.data     0.986014                       # mshr miss rate for overall accesses
system.l2.overall_mshr_miss_rate::total      0.570854                       # mshr miss rate for overall accesses
system.l2.demand_avg_mshr_miss_latency::.cpu.inst 68323.770492                       # average overall mshr miss latency
system.l2.demand_avg_mshr_miss_latency::.cpu.data 74854.609929                       # average overall mshr miss latency
system.l2.demand_avg_mshr_miss_latency::total 70487.079092                       # average overall mshr miss latency
system.l2.overall_avg_mshr_miss_latency::.cpu.inst 68323.770492                       # average overall mshr miss latency
system.l2.overall_avg_mshr_miss_latency::.cpu.data 74854.609929                       # average overall mshr miss latency
system.l2.overall_avg_mshr_miss_latency::total 70487.079092                       # average overall mshr miss latency
system.l2.replacements                              0                       # number of replacements
system.l2.WritebackDirty_hits::.writebacks           18                       # number of WritebackDirty hits
system.l2.WritebackDirty_hits::total               18                       # number of WritebackDirty hits
system.l2.WritebackDirty_accesses::.writebacks           18                       # number of WritebackDirty accesses(hits+misses)
system.l2.WritebackDirty_accesses::total           18                       # number of WritebackDirty accesses(hits+misses)
system.l2.WritebackClean_hits::.writebacks         1673                       # number of WritebackClean hits
system.l2.WritebackClean_hits::total             1673                       # number of WritebackClean hits
system.l2.WritebackClean_accesses::.writebacks         1673                       # number of WritebackClean accesses(hits+misses)
system.l2.WritebackClean_accesses::total         1673                       # number of WritebackClean accesses(hits+misses)
system.l2.ReadExReq_misses::.cpu.data             244                       # number of ReadExReq misses
system.l2.ReadExReq_misses::total                 244                       # number of ReadExReq misses
system.l2.ReadExReq_miss_latency::.cpu.data     20460500                       # number of ReadExReq miss cycles
system.l2.ReadExReq_miss_latency::total      20460500                       # number of ReadExReq miss cycles
system.l2.ReadExReq_accesses::.cpu.data           244                       # number of ReadExReq accesses(hits+misses)
system.l2.ReadExReq_accesses::total               244                       # number of ReadExReq accesses(hits+misses)
system.l2.ReadExReq_miss_rate::.cpu.data            1                       # miss rate for ReadExReq accesses
system.l2.ReadExReq_miss_rate::total                1                       # miss rate for ReadExReq accesses
system.l2.ReadExReq_avg_miss_latency::.cpu.data 83854.508197                       # average ReadExReq miss latency
system.l2.ReadExReq_avg_miss_latency::total 83854.508197                       # average ReadExReq miss latency
system.l2.ReadExReq_mshr_misses::.cpu.data          244                       # number of ReadExReq MSHR misses
system.l2.ReadExReq_mshr_misses::total            244                       # number of ReadExReq MSHR misses
system.l2.ReadExReq_mshr_miss_latency::.cpu.data     18020500                       # number of ReadExReq MSHR miss cycles
system.l2.ReadExReq_mshr_miss_latency::total     18020500                       # number of ReadExReq MSHR miss cycles
system.l2.ReadExReq_mshr_miss_rate::.cpu.data            1                       # mshr miss rate for ReadExReq accesses
system.l2.ReadExReq_mshr_miss_rate::total            1                       # mshr miss rate for ReadExReq accesses
system.l2.ReadExReq_avg_mshr_miss_latency::.cpu.data 73854.508197                       # average ReadExReq mshr miss latency
system.l2.ReadExReq_avg_mshr_miss_latency::total 73854.508197                       # average ReadExReq mshr miss latency
system.l2.ReadCleanReq_hits::.cpu.inst            327                       # number of ReadCleanReq hits
system.l2.ReadCleanReq_hits::.cpu.icache.prefetcher          627                       # number of ReadCleanReq hits
system.l2.ReadCleanReq_hits::total                954                       # number of ReadCleanReq hits
system.l2.ReadCleanReq_misses::.cpu.inst          854                       # number of ReadCleanReq misses
system.l2.ReadCleanReq_misses::total              854                       # number of ReadCleanReq misses
system.l2.ReadCleanReq_miss_latency::.cpu.inst     66878500                       # number of ReadCleanReq miss cycles
system.l2.ReadCleanReq_miss_latency::total     66878500                       # number of ReadCleanReq miss cycles
system.l2.ReadCleanReq_accesses::.cpu.inst         1181                       # number of ReadCleanReq accesses(hits+misses)
system.l2.ReadCleanReq_accesses::.cpu.icache.prefetcher          627                       # number of ReadCleanReq accesses(hits+misses)
system.l2.ReadCleanReq_accesses::total           1808                       # number of ReadCleanReq accesses(hits+misses)
[...]
system.cpu.dcache.overall_misses::total          2405                       # number of overall misses
system.cpu.dcache.demand_miss_latency::.cpu.data    147567925                       # number of demand (read+write) miss cycles
system.cpu.dcache.demand_miss_latency::total    147567925                       # number of demand (read+write) miss cycles
system.cpu.dcache.overall_miss_latency::.cpu.data    147567925                       # number of overall miss cycles
system.cpu.dcache.overall_miss_latency::total    147567925                       # number of overall miss cycles
system.cpu.dcache.demand_accesses::.cpu.data        12617                       # number of demand (read+write) accesses
system.cpu.dcache.demand_accesses::total        12617                       # number of demand (read+write) accesses
system.cpu.dcache.overall_accesses::.cpu.data        12636                       # number of overall (read+write) accesses
system.cpu.dcache.overall_accesses::total        12636                       # number of overall (read+write) accesses
system.cpu.dcache.demand_miss_rate::.cpu.data     0.190299                       # miss rate for demand accesses
system.cpu.dcache.demand_miss_rate::total     0.190299                       # miss rate for demand accesses
system.cpu.dcache.overall_miss_rate::.cpu.data     0.190329                       # miss rate for overall accesses
system.cpu.dcache.overall_miss_rate::total     0.190329                       # miss rate for overall accesses
system.cpu.dcache.demand_avg_miss_latency::.cpu.data 61461.026656                       # average overall miss latency
system.cpu.dcache.demand_avg_miss_latency::total 61461.026656                       # average overall miss latency
system.cpu.dcache.overall_avg_miss_latency::.cpu.data 61358.804574                       # average overall miss latency
system.cpu.dcache.overall_avg_miss_latency::total 61358.804574                       # average overall miss latency
system.cpu.dcache.blocked_cycles::no_mshrs         4580                       # number of cycles access was blocked
system.cpu.dcache.blocked_cycles::no_targets            0                       # number of cycles access was blocked
system.cpu.dcache.blocked::no_mshrs               115                       # number of cycles access was blocked
system.cpu.dcache.blocked::no_targets               0                       # number of cycles access was blocked
system.cpu.dcache.avg_blocked_cycles::no_mshrs    39.826087                       # average number of cycles each access was blocked
system.cpu.dcache.avg_blocked_cycles::no_targets          nan                       # average number of cycles each access was blocked
system.cpu.dcache.writebacks::.writebacks           18                       # number of writebacks
system.cpu.dcache.writebacks::total                18                       # number of writebacks
system.cpu.dcache.demand_mshr_hits::.cpu.data         1914                       # number of demand (read+write) MSHR hits
system.cpu.dcache.demand_mshr_hits::total         1914                       # number of demand (read+write) MSHR hits
system.cpu.dcache.overall_mshr_hits::.cpu.data         1914                       # number of overall MSHR hits
system.cpu.dcache.overall_mshr_hits::total         1914                       # number of overall MSHR hits
system.cpu.dcache.demand_mshr_misses::.cpu.data          487                       # number of demand (read+write) MSHR misses
system.cpu.dcache.demand_mshr_misses::total          487                       # number of demand (read+write) MSHR misses
system.cpu.dcache.overall_mshr_misses::.cpu.data          491                       # number of overall MSHR misses
system.cpu.dcache.overall_mshr_misses::total          491                       # number of overall MSHR misses
system.cpu.dcache.demand_mshr_miss_latency::.cpu.data     38118958                       # number of demand (read+write) MSHR miss cycles
system.cpu.dcache.demand_mshr_miss_latency::total     38118958                       # number of demand (read+write) MSHR miss cycles
system.cpu.dcache.overall_mshr_miss_latency::.cpu.data     38476958                       # number of overall MSHR miss cycles
system.cpu.dcache.overall_mshr_miss_latency::total     38476958                       # number of overall MSHR miss cycles
system.cpu.dcache.demand_mshr_miss_rate::.cpu.data     0.038599                       # mshr miss rate for demand accesses
system.cpu.dcache.demand_mshr_miss_rate::total     0.038599                       # mshr miss rate for demand accesses
system.cpu.dcache.overall_mshr_miss_rate::.cpu.data     0.038857                       # mshr miss rate for overall accesses
system.cpu.dcache.overall_mshr_miss_rate::total     0.038857                       # mshr miss rate for overall accesses
system.cpu.dcache.demand_avg_mshr_miss_latency::.cpu.data 78273.014374                       # average overall mshr miss latency
system.cpu.dcache.demand_avg_mshr_miss_latency::total 78273.014374                       # average overall mshr miss latency
system.cpu.dcache.overall_avg_mshr_miss_latency::.cpu.data 78364.476578                       # average overall mshr miss latency
system.cpu.dcache.overall_avg_mshr_miss_latency::total 78364.476578                       # average overall mshr miss latency
system.cpu.dcache.replacements                     27                       # number of replacements
system.cpu.dcache.ReadReq_hits::.cpu.data         5633                       # number of ReadReq hits
system.cpu.dcache.ReadReq_hits::total            5633                       # number of ReadReq hits
system.cpu.dcache.ReadReq_misses::.cpu.data          440                       # number of ReadReq misses
system.cpu.dcache.ReadReq_misses::total           440                       # number of ReadReq misses
system.cpu.dcache.ReadReq_miss_latency::.cpu.data     30835500                       # number of ReadReq miss cycles
system.cpu.dcache.ReadReq_miss_latency::total     30835500                       # number of ReadReq miss cycles
system.cpu.dcache.ReadReq_accesses::.cpu.data         6073                       # number of ReadReq accesses(hits+misses)
system.cpu.dcache.ReadReq_accesses::total         6073                       # number of ReadReq accesses(hits+misses)
system.cpu.dcache.ReadReq_miss_rate::.cpu.data     0.072452                       # miss rate for ReadReq accesses
system.cpu.dcache.ReadReq_miss_rate::total     0.072452                       # miss rate for ReadReq accesses
system.cpu.dcache.ReadReq_avg_miss_latency::.cpu.data 70080.681818                       # average ReadReq miss latency
system.cpu.dcache.ReadReq_avg_miss_latency::total 70080.681818                       # average ReadReq miss latency
system.cpu.dcache.ReadReq_mshr_hits::.cpu.data          260                       # number of ReadReq MSHR hits
system.cpu.dcache.ReadReq_mshr_hits::total          260                       # number of ReadReq MSHR hits
system.cpu.dcache.ReadReq_mshr_misses::.cpu.data          180                       # number of ReadReq MSHR misses
system.cpu.dcache.ReadReq_mshr_misses::total          180                       # number of ReadReq MSHR misses
system.cpu.dcache.ReadReq_mshr_miss_latency::.cpu.data     15339000                       # number of ReadReq MSHR miss cycles
system.cpu.dcache.ReadReq_mshr_miss_latency::total     15339000                       # number of ReadReq MSHR miss cycles
system.cpu.dcache.ReadReq_mshr_miss_rate::.cpu.data     0.029639                       # mshr miss rate for ReadReq accesses
system.cpu.dcache.ReadReq_mshr_miss_rate::total     0.029639                       # mshr miss rate for ReadReq accesses
system.cpu.dcache.ReadReq_avg_mshr_miss_latency::.cpu.data 85216.666667                       # average ReadReq mshr miss latency
system.cpu.dcache.ReadReq_avg_mshr_miss_latency::total 85216.666667                       # average ReadReq mshr miss latency
system.cpu.dcache.WriteReq_hits::.cpu.data         4583                       # number of WriteReq hits
system.cpu.dcache.WriteReq_hits::total           4583                       # number of WriteReq hits
system.cpu.dcache.WriteReq_misses::.cpu.data         1901                       # number of WriteReq misses
system.cpu.dcache.WriteReq_misses::total         1901                       # number of WriteReq misses
system.cpu.dcache.WriteReq_miss_latency::.cpu.data    114823459                       # number of WriteReq miss cycles
system.cpu.dcache.WriteReq_miss_latency::total    114823459                       # number of WriteReq miss cycles
system.cpu.dcache.WriteReq_accesses::.cpu.data         6484                       # number of WriteReq accesses(hits+misses)
system.cpu.dcache.WriteReq_accesses::total         6484                       # number of WriteReq accesses(hits+misses)
system.cpu.dcache.WriteReq_miss_rate::.cpu.data     0.293183                       # miss rate for WriteReq accesses
system.cpu.dcache.WriteReq_miss_rate::total     0.293183                       # miss rate for WriteReq accesses
system.cpu.dcache.WriteReq_avg_miss_latency::.cpu.data 60401.609153                       # average WriteReq miss latency
system.cpu.dcache.WriteReq_avg_miss_latency::total 60401.609153                       # average WriteReq miss latency
system.cpu.dcache.WriteReq_mshr_hits::.cpu.data         1654                       # number of WriteReq MSHR hits
system.cpu.dcache.WriteReq_mshr_hits::total         1654                       # number of WriteReq MSHR hits
system.cpu.dcache.WriteReq_mshr_misses::.cpu.data          247                       # number of WriteReq MSHR misses
system.cpu.dcache.WriteReq_mshr_misses::total          247                       # number of WriteReq MSHR misses
system.cpu.dcache.WriteReq_mshr_miss_latency::.cpu.data     20930992                       # number of WriteReq MSHR miss cycles
system.cpu.dcache.WriteReq_mshr_miss_latency::total     20930992                       # number of WriteReq MSHR miss cycles
system.cpu.dcache.WriteReq_mshr_miss_rate::.cpu.data     0.038094                       # mshr miss rate for WriteReq accesses
system.cpu.dcache.WriteReq_mshr_miss_rate::total     0.038094                       # mshr miss rate for WriteReq accesses
system.cpu.dcache.WriteReq_avg_mshr_miss_latency::.cpu.data 84740.858300                       # average WriteReq mshr miss latency
system.cpu.dcache.WriteReq_avg_mshr_miss_latency::total 84740.858300                       # average WriteReq mshr miss latency
system.cpu.dcache.SoftPFReq_hits::.cpu.data           15                       # number of SoftPFReq hits
system.cpu.dcache.SoftPFReq_hits::total            15                       # number of SoftPFReq hits
system.cpu.dcache.SoftPFReq_misses::.cpu.data            4                       # number of SoftPFReq misses
system.cpu.dcache.SoftPFReq_misses::total            4                       # number of SoftPFReq misses
system.cpu.dcache.SoftPFReq_accesses::.cpu.data           19                       # number of SoftPFReq accesses(hits+misses)
system.cpu.dcache.SoftPFReq_accesses::total           19                       # number of SoftPFReq accesses(hits+misses)
system.cpu.dcache.SoftPFReq_miss_rate::.cpu.data     0.210526                       # miss rate for SoftPFReq accesses
system.cpu.dcache.SoftPFReq_miss_rate::total     0.210526                       # miss rate for SoftPFReq accesses
system.cpu.dcache.SoftPFReq_mshr_misses::.cpu.data            4                       # number of SoftPFReq MSHR misses
system.cpu.dcache.SoftPFReq_mshr_misses::total            4                       # number of SoftPFReq MSHR misses
system.cpu.dcache.SoftPFReq_mshr_miss_latency::.cpu.data       358000                       # number of SoftPFReq MSHR miss cycles
system.cpu.dcache.SoftPFReq_mshr_miss_latency::total       358000                       # number of SoftPFReq MSHR miss cycles
system.cpu.dcache.SoftPFReq_mshr_miss_rate::.cpu.data     0.210526                       # mshr miss rate for SoftPFReq accesses
system.cpu.dcache.SoftPFReq_mshr_miss_rate::total     0.210526                       # mshr miss rate for SoftPFReq accesses
system.cpu.dcache.SoftPFReq_avg_mshr_miss_latency::.cpu.data        89500                       # average SoftPFReq mshr miss latency
system.cpu.dcache.SoftPFReq_avg_mshr_miss_latency::total        89500                       # average SoftPFReq mshr miss latency
system.cpu.dcache.WriteLineReq_misses::.cpu.data           60                       # number of WriteLineReq misses
system.cpu.dcache.WriteLineReq_misses::total           60                       # number of WriteLineReq misses
system.cpu.dcache.WriteLineReq_miss_latency::.cpu.data      1908966                       # number of WriteLineReq miss cycles
system.cpu.dcache.WriteLineReq_miss_latency::total      1908966                       # number of WriteLineReq miss cycles
system.cpu.dcache.WriteLineReq_accesses::.cpu.data           60                       # number of WriteLineReq accesses(hits+misses)
system.cpu.dcache.WriteLineReq_accesses::total           60                       # number of WriteLineReq accesses(hits+misses)
system.cpu.dcache.WriteLineReq_miss_rate::.cpu.data            1                       # miss rate for WriteLineReq accesses
system.cpu.dcache.WriteLineReq_miss_rate::total            1                       # miss rate for WriteLineReq accesses
system.cpu.dcache.WriteLineReq_avg_miss_latency::.cpu.data 31816.100000                       # average WriteLineReq miss latency
system.cpu.dcache.WriteLineReq_avg_miss_latency::total 31816.100000                       # average WriteLineReq miss latency
system.cpu.dcache.WriteLineReq_mshr_misses::.cpu.data           60                       # number of WriteLineReq MSHR misses
system.cpu.dcache.WriteLineReq_mshr_misses::total           60                       # number of WriteLineReq MSHR misses
system.cpu.dcache.WriteLineReq_mshr_miss_latency::.cpu.data      1848966                       # number of WriteLineReq MSHR miss cycles
system.cpu.dcache.WriteLineReq_mshr_miss_latency::total      1848966                       # number of WriteLineReq MSHR miss cycles
system.cpu.dcache.WriteLineReq_mshr_miss_rate::.cpu.data            1                       # mshr miss rate for WriteLineReq accesses
system.cpu.dcache.WriteLineReq_mshr_miss_rate::total            1                       # mshr miss rate for WriteLineReq accesses
system.cpu.dcache.WriteLineReq_avg_mshr_miss_latency::.cpu.data 30816.100000                       # average WriteLineReq mshr miss latency
system.cpu.dcache.WriteLineReq_avg_mshr_miss_latency::total 30816.100000                       # average WriteLineReq mshr miss latency
system.cpu.dcache.LoadLockedReq_hits::.cpu.data           28                       # number of LoadLockedReq hits
system.cpu.dcache.LoadLockedReq_hits::total           28                       # number of LoadLockedReq hits
system.cpu.dcache.LoadLockedReq_misses::.cpu.data            1                       # number of LoadLockedReq misses
system.cpu.dcache.LoadLockedReq_misses::total            1                       # number of LoadLockedReq misses
system.cpu.dcache.LoadLockedReq_miss_latency::.cpu.data        86500                       # number of LoadLockedReq miss cycles
system.cpu.dcache.LoadLockedReq_miss_latency::total        86500                       # number of LoadLockedReq miss cycles
system.cpu.dcache.LoadLockedReq_accesses::.cpu.data           29                       # number of LoadLockedReq accesses(hits+misses)
system.cpu.dcache.LoadLockedReq_accesses::total           29                       # number of LoadLockedReq accesses(hits+misses)
system.cpu.dcache.LoadLockedReq_miss_rate::.cpu.data     0.034483                       # miss rate for LoadLockedReq accesses
system.cpu.dcache.LoadLockedReq_miss_rate::total     0.034483                       # miss rate for LoadLockedReq accesses
system.cpu.dcache.LoadLockedReq_avg_miss_latency::.cpu.data        86500                       # average LoadLockedReq miss latency
system.cpu.dcache.LoadLockedReq_avg_miss_latency::total        86500                       # average LoadLockedReq miss latency
system.cpu.dcache.LoadLockedReq_mshr_misses::.cpu.data            1                       # number of LoadLockedReq MSHR misses
system.cpu.dcache.LoadLockedReq_mshr_misses::total            1                       # number of LoadLockedReq MSHR misses
system.cpu.dcache.LoadLockedReq_mshr_miss_latency::.cpu.data        85500                       # number of LoadLockedReq MSHR miss cycles
system.cpu.dcache.LoadLockedReq_mshr_miss_latency::total        85500                       # number of LoadLockedReq MSHR miss cycles
system.cpu.dcache.LoadLockedReq_mshr_miss_rate::.cpu.data     0.034483                       # mshr miss rate for LoadLockedReq accesses
system.cpu.dcache.LoadLockedReq_mshr_miss_rate::total     0.034483                       # mshr miss rate for LoadLockedReq accesses
system.cpu.dcache.LoadLockedReq_avg_mshr_miss_latency::.cpu.data        85500                       # average LoadLockedReq mshr miss latency
system.cpu.dcache.LoadLockedReq_avg_mshr_miss_latency::total        85500                       # average LoadLockedReq mshr miss latency
system.cpu.dcache.StoreCondReq_hits::.cpu.data           20                       # number of StoreCondReq hits
system.cpu.dcache.StoreCondReq_hits::total           20                       # number of StoreCondReq hits
system.cpu.dcache.StoreCondReq_accesses::.cpu.data           20                       # number of StoreCondReq accesses(hits+misses)
system.cpu.dcache.StoreCondReq_accesses::total           20                       # number of StoreCondReq accesses(hits+misses)
system.cpu.dcache.power_state.pwrStateResidencyTicks::UNDEFINED     64611500                       # Cumulative time (in ticks) in various power states
system.cpu.dcache.tags.tagsinuse           294.523153                       # Cycle average of tags in use
system.cpu.dcache.tags.total_refs               10771                       # Total number of references to valid blocks.
system.cpu.dcache.tags.sampled_refs               492                       # Sample count of references to valid blocks.
system.cpu.dcache.tags.avg_refs             21.892276                       # Average number of references to valid blocks.
system.cpu.dcache.tags.warmup_cycle            176500                       # Cycle when the warmup percentage was hit.
system.cpu.dcache.tags.occ_blocks::.cpu.data   294.523153                       # Average occupied blocks per requestor
system.cpu.dcache.tags.occ_percent::.cpu.data     0.287620                       # Average percentage of cache occupancy
system.cpu.dcache.tags.occ_percent::total     0.287620                       # Average percentage of cache occupancy
system.cpu.dcache.tags.occ_task_id_blocks::1024          465                       # Occupied blocks per task id
system.cpu.dcache.tags.age_task_id_blocks_1024::0           17                       # Occupied blocks per task id
system.cpu.dcache.tags.age_task_id_blocks_1024::1          448                       # Occupied blocks per task id
system.cpu.dcache.tags.occ_task_id_percent::1024     0.454102                       # Percentage of cache occupancy per task id
system.cpu.dcache.tags.tag_accesses             25862                       # Number of tag accesses
system.cpu.dcache.tags.data_accesses            25862                       # Number of data accesses
system.cpu.dcache.tags.power_state.pwrStateResidencyTicks::UNDEFINED     64611500                       # Cumulative time (in ticks) in various power states
system.cpu.power_state.pwrStateResidencyTicks::ON     64611500                       # Cumulative time (in ticks) in various power states

---------- End Simulation Statistics   ----------
