
---------- Begin Simulation Statistics ----------
final_tick                                  616844500                       # Number of ticks from beginning of simulation (restored from checkpoints and never reset)
host_inst_rate                                  80550                       # Simulator instruction rate (inst/s)
host_mem_usage                                 861736                       # Number of bytes of host memory used
host_op_rate                                    89711                       # Simulator op (including micro ops) rate (op/s)
host_seconds                                    12.41                       # Real time elapsed on the host
host_tick_rate                               49685750                       # Simulator tick rate (ticks/s)
sim_freq                                 1000000000000                       # Frequency of simulated ticks
sim_insts                                     1000000                       # Number of instructions simulated
sim_ops                                       1113757                       # Number of ops (including micro ops) simulated
sim_seconds                                  0.000617                       # Number of seconds simulated
sim_ticks                                   616844500                       # Number of ticks simulated
system.cpu.branchPred.BTBCorrect                    0                       # Number of correct BTB predictions (this stat may not work properly.
system.cpu.branchPred.BTBHitPct             97.578722                       # BTB Hit Percentage
system.cpu.branchPred.BTBHits                   95754                       # Number of BTB hits
system.cpu.branchPred.BTBLookups                98130                       # Number of BTB lookups
system.cpu.branchPred.RASInCorrect                  0                       # Number of incorrect RAS predictions.
system.cpu.branchPred.condIncorrect              4813                       # Number of conditional branches incorrect
system.cpu.branchPred.condPredicted            150908                       # Number of conditional branches predicted
system.cpu.branchPred.indirectHits               3411                       # Number of indirect target hits.
system.cpu.branchPred.indirectLookups            3604                       # Number of indirect predictor lookups.
system.cpu.branchPred.indirectMisses              193                       # Number of indirect misses.
system.cpu.branchPred.lookups                  202949                       # Number of BP lookups
system.cpu.branchPred.usedRAS                   18566                       # Number of times the RAS was used to get a target.
system.cpu.branchPredindirectMispredicted           55                       # Number of mispredicted indirect branches.
system.cpu.cc_regfile_reads                    352377                       # number of cc regfile reads
system.cpu.cc_regfile_writes                   351869                       # number of cc regfile writes
system.cpu.commit.amos                              0                       # Number of atomic instructions committed
system.cpu.commit.branchMispredicts              4286                       # The number of times a branch was mispredicted
system.cpu.commit.branches                     187499                       # Number of branches committed
system.cpu.commit.bw_lim_events                 42564                       # number cycles where commit BW limit reached
system.cpu.commit.commitNonSpecStalls            1151                       # The number of times commit has been forced to stall to communicate backwards
system.cpu.commit.commitSquashedInsts           39048                       # The number of squashed insts skipped by commit
system.cpu.commit.committedInsts              1000848                       # Number of instructions committed
system.cpu.commit.committedOps                1114605                       # Number of ops (including micro ops) committed
system.cpu.commit.committed_per_cycle::samples      1100960                       # Number of insts commited each cycle
system.cpu.commit.committed_per_cycle::mean     1.012394                       # Number of insts commited each cycle
system.cpu.commit.committed_per_cycle::stdev     1.924430                       # Number of insts commited each cycle
system.cpu.commit.committed_per_cycle::underflows            0      0.00%      0.00% # Number of insts commited each cycle
system.cpu.commit.committed_per_cycle::0       712877     64.75%     64.75% # Number of insts commited each cycle
system.cpu.commit.committed_per_cycle::1       141389     12.84%     77.59% # Number of insts commited each cycle
system.cpu.commit.committed_per_cycle::2        95646      8.69%     86.28% # Number of insts commited each cycle
system.cpu.commit.committed_per_cycle::3        49821      4.53%     90.81% # Number of insts commited each cycle
system.cpu.commit.committed_per_cycle::4        22066      2.00%     92.81% # Number of insts commited each cycle
system.cpu.commit.committed_per_cycle::5        22700      2.06%     94.87% # Number of insts commited each cycle
system.cpu.commit.committed_per_cycle::6         7094      0.64%     95.52% # Number of insts commited each cycle
system.cpu.commit.committed_per_cycle::7         6803      0.62%     96.13% # Number of insts commited each cycle
system.cpu.commit.committed_per_cycle::8        42564      3.87%    100.00% # Number of insts commited each cycle
system.cpu.commit.committed_per_cycle::overflows            0      0.00%    100.00% # Number of insts commited each cycle
system.cpu.commit.committed_per_cycle::min_value            0                       # Number of insts commited each cycle
system.cpu.commit.committed_per_cycle::max_value            8                       # Number of insts commited each cycle
system.cpu.commit.committed_per_cycle::total      1100960                       # Number of insts commited each cycle
system.cpu.commit.fp_insts                          0                       # Number of committed floating point instructions.
system.cpu.commit.function_calls                18322                       # Number of function calls committed.
system.cpu.commit.int_insts                    994638                       # Number of committed integer instructions.
system.cpu.commit.loads                        162174                       # Number of loads committed
system.cpu.commit.membars                        1143                       # Number of memory barriers committed
system.cpu.commit.op_class_0::No_OpClass         1144      0.10%      0.10% # Class of committed instruction
system.cpu.commit.op_class_0::IntAlu           756750     67.89%     68.00% # Class of committed instruction
system.cpu.commit.op_class_0::IntMult           22606      2.03%     70.02% # Class of committed instruction
system.cpu.commit.op_class_0::IntDiv                3      0.00%     70.03% # Class of committed instruction
system.cpu.commit.op_class_0::FloatAdd              0      0.00%     70.03% # Class of committed instruction
system.cpu.commit.op_class_0::FloatCmp           1136      0.10%     70.13% # Class of committed instruction
system.cpu.commit.op_class_0::FloatCvt            568      0.05%     70.18% # Class of committed instruction
system.cpu.commit.op_class_0::FloatMult             0      0.00%     70.18% # Class of committed instruction
system.cpu.commit.op_class_0::FloatMultAcc            0      0.00%     70.18% # Class of committed instruction
system.cpu.commit.op_class_0::FloatDiv            568      0.05%     70.23% # Class of committed instruction
system.cpu.commit.op_class_0::FloatMisc          2272      0.20%     70.43% # Class of committed instruction
system.cpu.commit.op_class_0::FloatSqrt             0      0.00%     70.43% # Class of committed instruction
system.cpu.commit.op_class_0::SimdAdd            2300      0.21%     70.64% # Class of committed instruction
system.cpu.commit.op_class_0::SimdAddAcc            0      0.00%     70.64% # Class of committed instruction
system.cpu.commit.op_class_0::SimdAlu            4573      0.41%     71.05% # Class of committed instruction
system.cpu.commit.op_class_0::SimdCmp            4576      0.41%     71.46% # Class of committed instruction
system.cpu.commit.op_class_0::SimdCvt               0      0.00%     71.46% # Class of committed instruction
system.cpu.commit.op_class_0::SimdMisc           3433      0.31%     71.77% # Class of committed instruction
system.cpu.commit.op_class_0::SimdMult              0      0.00%     71.77% # Class of committed instruction
system.cpu.commit.op_class_0::SimdMultAcc            0      0.00%     71.77% # Class of committed instruction
system.cpu.commit.op_class_0::SimdShift             0      0.00%     71.77% # Class of committed instruction
system.cpu.commit.op_class_0::SimdShiftAcc            0      0.00%     71.77% # Class of committed instruction
system.cpu.commit.op_class_0::SimdDiv               0      0.00%     71.77% # Class of committed instruction
system.cpu.commit.op_class_0::SimdSqrt              0      0.00%     71.77% # Class of committed instruction
system.cpu.commit.op_class_0::SimdFloatAdd            0      0.00%     71.77% # Class of committed instruction
system.cpu.commit.op_class_0::SimdFloatAlu            0      0.00%     71.77% # Class of committed instruction
system.cpu.commit.op_class_0::SimdFloatCmp            0      0.00%     71.77% # Class of committed instruction
system.cpu.commit.op_class_0::SimdFloatCvt            0      0.00%     71.77% # Class of committed instruction
system.cpu.commit.op_class_0::SimdFloatDiv            0      0.00%     71.77% # Class of committed instruction
system.cpu.commit.op_class_0::SimdFloatMisc            0      0.00%     71.77% # Class of committed instruction
system.cpu.commit.op_class_0::SimdFloatMult            0      0.00%     71.77% # Class of committed instruction
system.cpu.commit.op_class_0::SimdFloatMultAcc            0      0.00%     71.77% # Class of committed instruction
system.cpu.commit.op_class_0::SimdFloatSqrt            0      0.00%     71.77% # Class of committed instruction
system.cpu.commit.op_class_0::SimdReduceAdd            0      0.00%     71.77% # Class of committed instruction
system.cpu.commit.op_class_0::SimdReduceAlu            0      0.00%     71.77% # Class of committed instruction
system.cpu.commit.op_class_0::SimdReduceCmp            0      0.00%     71.77% # Class of committed instruction
system.cpu.commit.op_class_0::SimdFloatReduceAdd            0      0.00%     71.77% # Class of committed instruction
system.cpu.commit.op_class_0::SimdFloatReduceCmp            0      0.00%     71.77% # Class of committed instruction
system.cpu.commit.op_class_0::SimdAes               0      0.00%     71.77% # Class of committed instruction
system.cpu.commit.op_class_0::SimdAesMix            0      0.00%     71.77% # Class of committed instruction
system.cpu.commit.op_class_0::SimdSha1Hash            0      0.00%     71.77% # Class of committed instruction
system.cpu.commit.op_class_0::SimdSha1Hash2            0      0.00%     71.77% # Class of committed instruction
system.cpu.commit.op_class_0::SimdSha256Hash            0      0.00%     71.77% # Class of committed instruction
system.cpu.commit.op_class_0::SimdSha256Hash2            0      0.00%     71.77% # Class of committed instruction
system.cpu.commit.op_class_0::SimdShaSigma2            0      0.00%     71.77% # Class of committed instruction
system.cpu.commit.op_class_0::SimdShaSigma3            0      0.00%     71.77% # Class of committed instruction
system.cpu.commit.op_class_0::SimdPredAlu            0      0.00%     71.77% # Class of committed instruction
system.cpu.commit.op_class_0::MemRead          162174     14.55%     86.32% # Class of committed instruction
system.cpu.commit.op_class_0::MemWrite         152502     13.68%    100.00% # Class of committed instruction
system.cpu.commit.op_class_0::FloatMemRead            0      0.00%    100.00% # Class of committed instruction
system.cpu.commit.op_class_0::FloatMemWrite            0      0.00%    100.00% # Class of committed instruction
system.cpu.commit.op_class_0::IprAccess             0      0.00%    100.00% # Class of committed instruction
system.cpu.commit.op_class_0::InstPrefetch            0      0.00%    100.00% # Class of committed instruction
system.cpu.commit.op_class_0::total           1114605                       # Class of committed instruction
system.cpu.commit.refs                         314676                       # Number of memory references committed
system.cpu.commit.swp_count                         0                       # Number of s/w prefetches committed
system.cpu.commit.vec_insts                     33724                       # Number of committed Vector instructions.
system.cpu.committedInsts                     1000000                       # Number of Instructions Simulated
system.cpu.committedOps                       1113757                       # Number of Ops (including micro ops) Simulated
system.cpu.cpi                               1.233690                       # CPI: Cycles Per Instruction
system.cpu.cpi_total                         1.233690                       # CPI: Total CPI of All Threads
system.cpu.decode.BlockedCycles                 50092                       # Number of cycles decode is blocked
system.cpu.decode.BranchMispred                   532                       # Number of times decode detected a branch misprediction
system.cpu.decode.BranchResolved                95072                       # Number of times decode resolved a branch
system.cpu.decode.DecodedInsts                1179455                       # Number of instructions handled by decode
system.cpu.decode.IdleCycles                   816407                       # Number of cycles decode is idle
system.cpu.decode.RunCycles                    234482                       # Number of cycles decode is running
system.cpu.decode.SquashCycles                   4310                       # Number of cycles decode is squashing
system.cpu.decode.SquashedInsts                   835                       # Number of squashed instructions handled by decode
system.cpu.decode.UnblockCycles                  3186                       # Number of cycles decode is unblocking
system.cpu.dtb.accesses                             0                       # DTB accesses
system.cpu.dtb.align_faults                         0                       # Number of TLB faults due to alignment restrictions
system.cpu.dtb.domain_faults                        0                       # Number of TLB faults due to domain restrictions
system.cpu.dtb.flush_entries                        0                       # Number of entries that have been flushed from TLB
system.cpu.dtb.flush_tlb                            0                       # Number of times complete TLB was flushed
system.cpu.dtb.flush_tlb_asid                       0                       # Number of times TLB was flushed by ASID
system.cpu.dtb.flush_tlb_mva                        0                       # Number of times TLB was flushed by MVA
system.cpu.dtb.flush_tlb_mva_asid                   0                       # Number of times TLB was flushed by MVA & ASID
system.cpu.dtb.hits                                 0                       # DTB hits
system.cpu.dtb.inst_accesses                        0                       # ITB inst accesses
system.cpu.dtb.inst_hits                            0                       # ITB inst hits
system.cpu.dtb.inst_misses                          0                       # ITB inst misses
system.cpu.dtb.misses                               0                       # DTB misses
system.cpu.dtb.perms_faults                         0                       # Number of TLB faults due to permissions restrictions
system.cpu.dtb.prefetch_faults                      0                       # Number of TLB faults due to prefetch
system.cpu.dtb.read_accesses                        0                       # DTB read accesses
system.cpu.dtb.read_hits                            0                       # DTB read hits
system.cpu.dtb.read_misses                          0                       # DTB read misses
system.cpu.dtb.stage2_mmu.stage2_tlb.accesses            0                       # DTB accesses
system.cpu.dtb.stage2_mmu.stage2_tlb.align_faults            0                       # Number of TLB faults due to alignment restrictions
system.cpu.dtb.stage2_mmu.stage2_tlb.domain_faults            0                       # Number of TLB faults due to domain restrictions
system.cpu.dtb.stage2_mmu.stage2_tlb.flush_entries            0                       # Number of entries that have been flushed from TLB
system.cpu.dtb.stage2_mmu.stage2_tlb.flush_tlb            0                       # Number of times complete TLB was flushed
system.cpu.dtb.stage2_mmu.stage2_tlb.flush_tlb_asid            0                       # Number of times TLB was flushed by ASID
system.cpu.dtb.stage2_mmu.stage2_tlb.flush_tlb_mva            0                       # Number of times TLB was flushed by MVA
system.cpu.dtb.stage2_mmu.stage2_tlb.flush_tlb_mva_asid            0                       # Number of times TLB was flushed by MVA & ASID
system.cpu.dtb.stage2_mmu.stage2_tlb.hits            0                       # DTB hits
system.cpu.dtb.stage2_mmu.stage2_tlb.inst_accesses            0                       # ITB inst accesses
system.cpu.dtb.stage2_mmu.stage2_tlb.inst_hits            0                       # ITB inst hits
system.cpu.dtb.stage2_mmu.stage2_tlb.inst_misses            0                       # ITB inst misses
system.cpu.dtb.stage2_mmu.stage2_tlb.misses            0                       # DTB misses
system.cpu.dtb.stage2_mmu.stage2_tlb.perms_faults            0                       # Number of TLB faults due to permissions restrictions
system.cpu.dtb.stage2_mmu.stage2_tlb.prefetch_faults            0                       # Number of TLB faults due to prefetch
system.cpu.dtb.stage2_mmu.stage2_tlb.read_accesses            0                       # DTB read accesses
system.cpu.dtb.stage2_mmu.stage2_tlb.read_hits            0                       # DTB read hits
system.cpu.dtb.stage2_mmu.stage2_tlb.read_misses            0                       # DTB read misses
system.cpu.dtb.stage2_mmu.stage2_tlb.walker.walkRequestOrigin_Requested::Data            0                       # Table walker requests started/completed, data/inst
system.cpu.dtb.stage2_mmu.stage2_tlb.walker.walkRequestOrigin_Requested::Inst            0                       # Table walker requests started/completed, data/inst
system.cpu.dtb.stage2_mmu.stage2_tlb.walker.walkRequestOrigin_Requested::total            0                       # Table walker requests started/completed, data/inst
system.cpu.dtb.stage2_mmu.stage2_tlb.walker.walkRequestOrigin_Completed::Data            0                       # Table walker requests started/completed, data/inst
system.cpu.dtb.stage2_mmu.stage2_tlb.walker.walkRequestOrigin_Completed::Inst            0                       # Table walker requests started/completed, data/inst
system.cpu.dtb.stage2_mmu.stage2_tlb.walker.walkRequestOrigin_Completed::total            0                       # Table walker requests started/completed, data/inst
system.cpu.dtb.stage2_mmu.stage2_tlb.walker.walkRequestOrigin::total            0                       # Table walker requests started/completed, data/inst
system.cpu.dtb.stage2_mmu.stage2_tlb.walker.walks            0                       # Table walker walks requested
system.cpu.dtb.stage2_mmu.stage2_tlb.write_accesses            0                       # DTB write accesses
system.cpu.dtb.stage2_mmu.stage2_tlb.write_hits            0                       # DTB write hits
system.cpu.dtb.stage2_mmu.stage2_tlb.write_misses            0                       # DTB write misses
system.cpu.dtb.walker.walkRequestOrigin_Requested::Data            0                       # Table walker requests started/completed, data/inst
system.cpu.dtb.walker.walkRequestOrigin_Requested::Inst            0                       # Table walker requests started/completed, data/inst
system.cpu.dtb.walker.walkRequestOrigin_Requested::total            0                       # Table walker requests started/completed, data/inst
system.cpu.dtb.walker.walkRequestOrigin_Completed::Data            0                       # Table walker requests started/completed, data/inst
system.cpu.dtb.walker.walkRequestOrigin_Completed::Inst            0                       # Table walker requests started/completed, data/inst
system.cpu.dtb.walker.walkRequestOrigin_Completed::total            0                       # Table walker requests started/completed, data/inst
system.cpu.dtb.walker.walkRequestOrigin::total            0                       # Table walker requests started/completed, data/inst
system.cpu.dtb.walker.walks                         0                       # Table walker walks requested
system.cpu.dtb.write_accesses                       0                       # DTB write accesses
system.cpu.dtb.write_hits                           0                       # DTB write hits
system.cpu.dtb.write_misses                         0                       # DTB write misses
system.cpu.fetch.Branches                      202949                       # Number of branches that fetch encountered
system.cpu.fetch.CacheLines                    168668                       # Number of cache lines fetched
system.cpu.fetch.Cycles                        248634                       # Number of cycles fetch has run and was not squashing or blocked
system.cpu.fetch.IcacheSquashes                  2388                       # Number of outstanding Icache misses that were squashed
system.cpu.fetch.IcacheWaitRetryStallCycles           77                       # Number of stall cycles due to full MSHR
system.cpu.fetch.Insts                        1070697                       # Number of instructions fetch has processed
system.cpu.fetch.MiscStallCycles                    3                       # Number of cycles fetch has spent waiting on interrupts, or bad addresses, or out of MSHRs
system.cpu.fetch.SquashCycles                    9674                       # Number of cycles fetch has spent squashing
system.cpu.fetch.branchRate                  0.164506                       # Number of branch fetches per cycle
system.cpu.fetch.icacheStallCycles             854926                       # Number of cycles fetch is stalled on an Icache miss
system.cpu.fetch.predictedBranches             117731                       # Number of branches that fetch has predicted taken
system.cpu.fetch.rate                        0.867882                       # Number of inst fetches per cycle
system.cpu.fetch.rateDist::samples            1108477                       # Number of instructions fetched each cycle (Total)
system.cpu.fetch.rateDist::mean              1.077428                       # Number of instructions fetched each cycle (Total)
system.cpu.fetch.rateDist::stdev             2.376075                       # Number of instructions fetched each cycle (Total)
system.cpu.fetch.rateDist::underflows               0      0.00%      0.00% # Number of instructions fetched each cycle (Total)
system.cpu.fetch.rateDist::0                   867347     78.25%     78.25% # Number of instructions fetched each cycle (Total)
system.cpu.fetch.rateDist::1                    38211      3.45%     81.69% # Number of instructions fetched each cycle (Total)
system.cpu.fetch.rateDist::2                    15946      1.44%     83.13% # Number of instructions fetched each cycle (Total)
system.cpu.fetch.rateDist::3                    19188      1.73%     84.86% # Number of instructions fetched each cycle (Total)
system.cpu.fetch.rateDist::4                    44863      4.05%     88.91% # Number of instructions fetched each cycle (Total)
system.cpu.fetch.rateDist::5                    12470      1.12%     90.04% # Number of instructions fetched each cycle (Total)
system.cpu.fetch.rateDist::6                    26738      2.41%     92.45% # Number of instructions fetched each cycle (Total)
system.cpu.fetch.rateDist::7                     5305      0.48%     92.93% # Number of instructions fetched each cycle (Total)
system.cpu.fetch.rateDist::8                    78409      7.07%    100.00% # Number of instructions fetched each cycle (Total)
system.cpu.fetch.rateDist::overflows                0      0.00%    100.00% # Number of instructions fetched each cycle (Total)
system.cpu.fetch.rateDist::min_value                0                       # Number of instructions fetched each cycle (Total)
system.cpu.fetch.rateDist::max_value                8                       # Number of instructions fetched each cycle (Total)
system.cpu.fetch.rateDist::total              1108477                       # Number of instructions fetched each cycle (Total)
system.cpu.icache.prefetcher.num_hwpf_issued       189439                       # number of hwpf issued
system.cpu.icache.prefetcher.pfBufferHit       981218                       # number of redundant prefetches already in prefetch queue
system.cpu.icache.prefetcher.pfIdentified      1199901                       # number of prefetch candidates identified
system.cpu.icache.prefetcher.pfInCache              0                       # number of redundant prefetches already in cache/mshr dropped
system.cpu.icache.prefetcher.pfRemovedFull         6243                       # number of prefetches dropped due to prefetch queue size
system.cpu.icache.prefetcher.pfSpanPage       4967923                       # number of prefetches that crossed the page
system.cpu.idleCycles                          125213                       # Total number of cycles that the CPU has spent unscheduled due to idling
system.cpu.iew.branchMispredicts                 4355                       # Number of branch mispredicts detected at execute
system.cpu.iew.exec_branches                   189816                       # Number of branches executed
system.cpu.iew.exec_nop                           887                       # number of nop insts executed
system.cpu.iew.exec_rate                     0.923301                       # Inst execution rate
system.cpu.iew.exec_refs                       325488                       # number of memory reference insts executed
system.cpu.iew.exec_stores                     152984                       # Number of stores executed
system.cpu.iew.exec_swp                             0                       # number of swp insts executed
system.cpu.iew.iewBlockCycles                    3690                       # Number of cycles IEW is blocking
system.cpu.iew.iewDispLoadInsts                168422                       # Number of dispatched load instructions
system.cpu.iew.iewDispNonSpecInsts               1162                       # Number of dispatched non-speculative instructions
system.cpu.iew.iewDispSquashedInsts              4708                       # Number of squashed instructions skipped by dispatch
system.cpu.iew.iewDispStoreInsts               156343                       # Number of dispatched store instructions
system.cpu.iew.iewDispatchedInsts             1153661                       # Number of instructions dispatched to IQ
system.cpu.iew.iewExecLoadInsts                172504                       # Number of load instructions executed
system.cpu.iew.iewExecSquashedInsts              3953                       # Number of squashed instructions skipped in execute
system.cpu.iew.iewExecutedInsts               1139067                       # Number of executed instructions
system.cpu.iew.iewIQFullEvents                      6                       # Number of times the IQ has become full, causing a stall
system.cpu.iew.iewIdleCycles                        0                       # Number of cycles IEW is idle
system.cpu.iew.iewLSQFullEvents                   153                       # Number of times the LSQ has become full, causing a stall
system.cpu.iew.iewSquashCycles                   4310                       # Number of cycles IEW is squashing
system.cpu.iew.iewUnblockCycles                   161                       # Number of cycles IEW is unblocking
system.cpu.iew.lsq.thread0.blockedLoads             0                       # Number of blocked loads due to partial load-store forwarding
system.cpu.iew.lsq.thread0.cacheBlocked            57                       # Number of times an access to memory failed due to the cache being blocked
system.cpu.iew.lsq.thread0.forwLoads             4798                       # Number of loads that had data forwarded from stores
system.cpu.iew.lsq.thread0.ignoredResponses            4                       # Number of memory responses ignored because the instruction is squashed
system.cpu.iew.lsq.thread0.invAddrLoads             0                       # Number of loads ignored due to an invalid address
system.cpu.iew.lsq.thread0.invAddrSwpfs             0                       # Number of software prefetches ignored due to an invalid address
system.cpu.iew.lsq.thread0.memOrderViolation           33                       # Number of memory ordering violations
system.cpu.iew.lsq.thread0.rescheduledLoads         6178                       # Number of loads that were rescheduled
system.cpu.iew.lsq.thread0.squashedLoads         6247                       # Number of loads squashed
system.cpu.iew.lsq.thread0.squashedStores         3841                       # Number of stores squashed
system.cpu.iew.memOrderViolationEvents             33                       # Number of memory order violations
system.cpu.iew.predictedNotTakenIncorrect         3565                       # Number of branches that were predicted not taken incorrectly
system.cpu.iew.predictedTakenIncorrect            790                       # Number of branches that were predicted taken incorrectly
system.cpu.iew.wb_consumers                   1038177                       # num instructions consuming a value
system.cpu.iew.wb_count                       1130873                       # cumulative count of insts written-back
system.cpu.iew.wb_fanout                     0.562442                       # average fanout of values written-back
system.cpu.iew.wb_producers                    583914                       # num instructions producing a value
system.cpu.iew.wb_rate                       0.916659                       # insts written-back per cycle
system.cpu.iew.wb_sent                        1131232                       # cumulative count of insts sent to commit
system.cpu.int_regfile_reads                  1380217                       # number of integer regfile reads
system.cpu.int_regfile_writes                  813362                       # number of integer regfile writes
system.cpu.ipc                               0.810576                       # IPC: Instructions Per Cycle
system.cpu.ipc_total                         0.810576                       # IPC: Total IPC of All Threads
system.cpu.iq.FU_type_0::No_OpClass              1145      0.10%      0.10% # Type of FU issued
system.cpu.iq.FU_type_0::IntAlu                773309     67.65%     67.75% # Type of FU issued
system.cpu.iq.FU_type_0::IntMult                22606      1.98%     69.73% # Type of FU issued
system.cpu.iq.FU_type_0::IntDiv                     3      0.00%     69.73% # Type of FU issued
system.cpu.iq.FU_type_0::FloatAdd                   0      0.00%     69.73% # Type of FU issued
system.cpu.iq.FU_type_0::FloatCmp                1136      0.10%     69.83% # Type of FU issued
system.cpu.iq.FU_type_0::FloatCvt                 568      0.05%     69.88% # Type of FU issued
system.cpu.iq.FU_type_0::FloatMult                  0      0.00%     69.88% # Type of FU issued
system.cpu.iq.FU_type_0::FloatMultAcc               0      0.00%     69.88% # Type of FU issued
system.cpu.iq.FU_type_0::FloatDiv                 568      0.05%     69.93% # Type of FU issued
system.cpu.iq.FU_type_0::FloatMisc               2273      0.20%     70.13% # Type of FU issued
system.cpu.iq.FU_type_0::FloatSqrt                  0      0.00%     70.13% # Type of FU issued
system.cpu.iq.FU_type_0::SimdAdd                 2306      0.20%     70.33% # Type of FU issued
system.cpu.iq.FU_type_0::SimdAddAcc                 0      0.00%     70.33% # Type of FU issued
system.cpu.iq.FU_type_0::SimdAlu                 4577      0.40%     70.73% # Type of FU issued
system.cpu.iq.FU_type_0::SimdCmp                 4580      0.40%     71.13% # Type of FU issued
system.cpu.iq.FU_type_0::SimdCvt                    0      0.00%     71.13% # Type of FU issued
system.cpu.iq.FU_type_0::SimdMisc                3436      0.30%     71.43% # Type of FU issued
system.cpu.iq.FU_type_0::SimdMult                   0      0.00%     71.43% # Type of FU issued
system.cpu.iq.FU_type_0::SimdMultAcc                0      0.00%     71.43% # Type of FU issued
system.cpu.iq.FU_type_0::SimdShift                  0      0.00%     71.43% # Type of FU issued
system.cpu.iq.FU_type_0::SimdShiftAcc               0      0.00%     71.43% # Type of FU issued
system.cpu.iq.FU_type_0::SimdDiv                    0      0.00%     71.43% # Type of FU issued
system.cpu.iq.FU_type_0::SimdSqrt                   0      0.00%     71.43% # Type of FU issued
system.cpu.iq.FU_type_0::SimdFloatAdd               0      0.00%     71.43% # Type of FU issued
system.cpu.iq.FU_type_0::SimdFloatAlu               0      0.00%     71.43% # Type of FU issued
system.cpu.iq.FU_type_0::SimdFloatCmp               0      0.00%     71.43% # Type of FU issued
system.cpu.iq.FU_type_0::SimdFloatCvt               0      0.00%     71.43% # Type of FU issued
system.cpu.iq.FU_type_0::SimdFloatDiv               0      0.00%     71.43% # Type of FU issued
system.cpu.iq.FU_type_0::SimdFloatMisc              0      0.00%     71.43% # Type of FU issued
system.cpu.iq.FU_type_0::SimdFloatMult              0      0.00%     71.43% # Type of FU issued
system.cpu.iq.FU_type_0::SimdFloatMultAcc            0      0.00%     71.43% # Type of FU issued
system.cpu.iq.FU_type_0::SimdFloatSqrt              0      0.00%     71.43% # Type of FU issued
system.cpu.iq.FU_type_0::SimdReduceAdd              0      0.00%     71.43% # Type of FU issued
system.cpu.iq.FU_type_0::SimdReduceAlu              0      0.00%     71.43% # Type of FU issued
system.cpu.iq.FU_type_0::SimdReduceCmp              0      0.00%     71.43% # Type of FU issued
system.cpu.iq.FU_type_0::SimdFloatReduceAdd            0      0.00%     71.43% # Type of FU issued
system.cpu.iq.FU_type_0::SimdFloatReduceCmp            0      0.00%     71.43% # Type of FU issued
system.cpu.iq.FU_type_0::SimdAes                    0      0.00%     71.43% # Type of FU issued
system.cpu.iq.FU_type_0::SimdAesMix                 0      0.00%     71.43% # Type of FU issued
system.cpu.iq.FU_type_0::SimdSha1Hash               0      0.00%     71.43% # Type of FU issued
system.cpu.iq.FU_type_0::SimdSha1Hash2              0      0.00%     71.43% # Type of FU issued
system.cpu.iq.FU_type_0::SimdSha256Hash             0      0.00%     71.43% # Type of FU issued
system.cpu.iq.FU_type_0::SimdSha256Hash2            0      0.00%     71.43% # Type of FU issued
system.cpu.iq.FU_type_0::SimdShaSigma2              0      0.00%     71.43% # Type of FU issued
system.cpu.iq.FU_type_0::SimdShaSigma3              0      0.00%     71.43% # Type of FU issued
system.cpu.iq.FU_type_0::SimdPredAlu                0      0.00%     71.43% # Type of FU issued
system.cpu.iq.FU_type_0::MemRead               172792     15.12%     86.55% # Type of FU issued
system.cpu.iq.FU_type_0::MemWrite              153724     13.45%    100.00% # Type of FU issued
system.cpu.iq.FU_type_0::FloatMemRead               0      0.00%    100.00% # Type of FU issued
system.cpu.iq.FU_type_0::FloatMemWrite              0      0.00%    100.00% # Type of FU issued
system.cpu.iq.FU_type_0::IprAccess                  0      0.00%    100.00% # Type of FU issued
system.cpu.iq.FU_type_0::InstPrefetch               0      0.00%    100.00% # Type of FU issued
system.cpu.iq.FU_type_0::total                1143023                       # Type of FU issued
system.cpu.iq.fp_alu_accesses                       0                       # Number of floating point alu accesses
system.cpu.iq.fp_inst_queue_reads                   0                       # Number of floating instruction queue reads
system.cpu.iq.fp_inst_queue_wakeup_accesses            0                       # Number of floating instruction queue wakeup accesses
system.cpu.iq.fp_inst_queue_writes                  0                       # Number of floating instruction queue writes
system.cpu.iq.fu_busy_cnt                       17242                       # FU busy when requested
system.cpu.iq.fu_busy_rate                   0.015085                       # FU busy rate (busy events/executed inst)
system.cpu.iq.fu_full::No_OpClass                   0      0.00%      0.00% # attempts to use FU when none available
system.cpu.iq.fu_full::IntAlu                     746      4.33%      4.33% # attempts to use FU when none available
system.cpu.iq.fu_full::IntMult                   5077     29.45%     33.77% # attempts to use FU when none available
system.cpu.iq.fu_full::IntDiv                       0      0.00%     33.77% # attempts to use FU when none available
system.cpu.iq.fu_full::FloatAdd                     0      0.00%     33.77% # attempts to use FU when none available
system.cpu.iq.fu_full::FloatCmp                     0      0.00%     33.77% # attempts to use FU when none available
system.cpu.iq.fu_full::FloatCvt                     0      0.00%     33.77% # attempts to use FU when none available
system.cpu.iq.fu_full::FloatMult                    0      0.00%     33.77% # attempts to use FU when none available
system.cpu.iq.fu_full::FloatMultAcc                 0      0.00%     33.77% # attempts to use FU when none available
system.cpu.iq.fu_full::FloatDiv                     0      0.00%     33.77% # attempts to use FU when none available
system.cpu.iq.fu_full::FloatMisc                    0      0.00%     33.77% # attempts to use FU when none available
system.cpu.iq.fu_full::FloatSqrt                    0      0.00%     33.77% # attempts to use FU when none available
system.cpu.iq.fu_full::SimdAdd                      0      0.00%     33.77% # attempts to use FU when none available
system.cpu.iq.fu_full::SimdAddAcc                   0      0.00%     33.77% # attempts to use FU when none available
system.cpu.iq.fu_full::SimdAlu                      1      0.01%     33.78% # attempts to use FU when none available
system.cpu.iq.fu_full::SimdCmp                      2      0.01%     33.79% # attempts to use FU when none available
system.cpu.iq.fu_full::SimdCvt                      0      0.00%     33.79% # attempts to use FU when none available
system.cpu.iq.fu_full::SimdMisc                     0      0.00%     33.79% # attempts to use FU when none available
system.cpu.iq.fu_full::SimdMult                     0      0.00%     33.79% # attempts to use FU when none available
system.cpu.iq.fu_full::SimdMultAcc                  0      0.00%     33.79% # attempts to use FU when none available
system.cpu.iq.fu_full::SimdShift                    0      0.00%     33.79% # attempts to use FU when none available
system.cpu.iq.fu_full::SimdShiftAcc                 0      0.00%     33.79% # attempts to use FU when none available
system.cpu.iq.fu_full::SimdDiv                      0      0.00%     33.79% # attempts to use FU when none available
system.cpu.iq.fu_full::SimdSqrt                     0      0.00%     33.79% # attempts to use FU when none available
system.cpu.iq.fu_full::SimdFloatAdd                 0      0.00%     33.79% # attempts to use FU when none available
system.cpu.iq.fu_full::SimdFloatAlu                 0      0.00%     33.79% # attempts to use FU when none available
system.cpu.iq.fu_full::SimdFloatCmp                 0      0.00%     33.79% # attempts to use FU when none available
system.cpu.iq.fu_full::SimdFloatCvt                 0      0.00%     33.79% # attempts to use FU when none available
system.cpu.iq.fu_full::SimdFloatDiv                 0      0.00%     33.79% # attempts to use FU when none available
system.cpu.iq.fu_full::SimdFloatMisc                0      0.00%     33.79% # attempts to use FU when none available
system.cpu.iq.fu_full::SimdFloatMult                0      0.00%     33.79% # attempts to use FU when none available
system.cpu.iq.fu_full::SimdFloatMultAcc             0      0.00%     33.79% # attempts to use FU when none available
system.cpu.iq.fu_full::SimdFloatSqrt                0      0.00%     33.79% # attempts to use FU when none available
system.cpu.iq.fu_full::SimdReduceAdd                0      0.00%     33.79% # attempts to use FU when none available
system.cpu.iq.fu_full::SimdReduceAlu                0      0.00%     33.79% # attempts to use FU when none available
system.cpu.iq.fu_full::SimdReduceCmp                0      0.00%     33.79% # attempts to use FU when none available
system.cpu.iq.fu_full::SimdFloatReduceAdd            0      0.00%     33.79% # attempts to use FU when none available
system.cpu.iq.fu_full::SimdFloatReduceCmp            0      0.00%     33.79% # attempts to use FU when none available
system.cpu.iq.fu_full::SimdAes                      0      0.00%     33.79% # attempts to use FU when none available
system.cpu.iq.fu_full::SimdAesMix                   0      0.00%     33.79% # attempts to use FU when none available
system.cpu.iq.fu_full::SimdSha1Hash                 0      0.00%     33.79% # attempts to use FU when none available
system.cpu.iq.fu_full::SimdSha1Hash2                0      0.00%     33.79% # attempts to use FU when none available
system.cpu.iq.fu_full::SimdSha256Hash               0      0.00%     33.79% # attempts to use FU when none available
system.cpu.iq.fu_full::SimdSha256Hash2              0      0.00%     33.79% # attempts to use FU when none available
system.cpu.iq.fu_full::SimdShaSigma2                0      0.00%     33.79% # attempts to use FU when none available
system.cpu.iq.fu_full::SimdShaSigma3                0      0.00%     33.79% # attempts to use FU when none available
system.cpu.iq.fu_full::SimdPredAlu                  0      0.00%     33.79% # attempts to use FU when none available
system.cpu.iq.fu_full::MemRead                   4051     23.49%     57.28% # attempts to use FU when none available
system.cpu.iq.fu_full::MemWrite                  7365     42.72%    100.00% # attempts to use FU when none available
system.cpu.iq.fu_full::FloatMemRead                 0      0.00%    100.00% # attempts to use FU when none available
system.cpu.iq.fu_full::FloatMemWrite                0      0.00%    100.00% # attempts to use FU when none available
system.cpu.iq.fu_full::IprAccess                    0      0.00%    100.00% # attempts to use FU when none available
system.cpu.iq.fu_full::InstPrefetch                 0      0.00%    100.00% # attempts to use FU when none available
system.cpu.iq.int_alu_accesses                1124190                       # Number of integer alu accesses
system.cpu.iq.int_inst_queue_reads            3341973                       # Number of integer instruction queue reads
system.cpu.iq.int_inst_queue_wakeup_accesses      1097117                       # Number of integer instruction queue wakeup accesses
system.cpu.iq.int_inst_queue_writes           1157766                       # Number of integer instruction queue writes
system.cpu.iq.iqInstsAdded                    1151612                       # Number of instructions added to the IQ (excludes non-spec)
system.cpu.iq.iqInstsIssued                   1143023                       # Number of instructions issued
system.cpu.iq.iqNonSpecInstsAdded                1162                       # Number of non-speculative instructions added to the IQ
system.cpu.iq.iqSquashedInstsExamined           39009                       # Number of squashed instructions iterated over during squash; mainly for profiling
system.cpu.iq.iqSquashedInstsIssued                87                       # Number of squashed instructions issued
system.cpu.iq.iqSquashedNonSpecRemoved             11                       # Number of squashed non-spec instructions that were removed
system.cpu.iq.iqSquashedOperandsExamined        37315                       # Number of squashed operands that are examined and possibly removed from graph
system.cpu.iq.issued_per_cycle::samples       1108477                       # Number of insts issued each cycle
system.cpu.iq.issued_per_cycle::mean         1.031165                       # Number of insts issued each cycle
system.cpu.iq.issued_per_cycle::stdev        1.652114                       # Number of insts issued each cycle
system.cpu.iq.issued_per_cycle::underflows            0      0.00%      0.00% # Number of insts issued each cycle
system.cpu.iq.issued_per_cycle::0              681245     61.46%     61.46% # Number of insts issued each cycle
system.cpu.iq.issued_per_cycle::1              131648     11.88%     73.33% # Number of insts issued each cycle
system.cpu.iq.issued_per_cycle::2               93749      8.46%     81.79% # Number of insts issued each cycle
system.cpu.iq.issued_per_cycle::3               88875      8.02%     89.81% # Number of insts issued each cycle
system.cpu.iq.issued_per_cycle::4               56523      5.10%     94.91% # Number of insts issued each cycle
system.cpu.iq.issued_per_cycle::5               24985      2.25%     97.16% # Number of insts issued each cycle
system.cpu.iq.issued_per_cycle::6               18242      1.65%     98.81% # Number of insts issued each cycle
system.cpu.iq.issued_per_cycle::7                8897      0.80%     99.61% # Number of insts issued each cycle
system.cpu.iq.issued_per_cycle::8                4313      0.39%    100.00% # Number of insts issued each cycle
system.cpu.iq.issued_per_cycle::overflows            0      0.00%    100.00% # Number of insts issued each cycle
system.cpu.iq.issued_per_cycle::min_value            0                       # Number of insts issued each cycle
system.cpu.iq.issued_per_cycle::max_value            8                       # Number of insts issued each cycle
system.cpu.iq.issued_per_cycle::total         1108477                       # Number of insts issued each cycle
system.cpu.iq.rate                           0.926507                       # Inst issue rate
system.cpu.iq.vec_alu_accesses                  34930                       # Number of vector alu accesses
system.cpu.iq.vec_inst_queue_reads              69876                       # Number of vector instruction queue reads
system.cpu.iq.vec_inst_queue_wakeup_accesses        33756                       # Number of vector instruction queue wakeup accesses
system.cpu.iq.vec_inst_queue_writes             34030                       # Number of vector instruction queue writes
system.cpu.itb.accesses                             0                       # DTB accesses
system.cpu.itb.align_faults                         0                       # Number of TLB faults due to alignment restrictions
system.cpu.itb.domain_faults                        0                       # Number of TLB faults due to domain restrictions
system.cpu.itb.flush_entries                        0                       # Number of entries that have been flushed from TLB
system.cpu.itb.flush_tlb                            0                       # Number of times complete TLB was flushed
system.cpu.itb.flush_tlb_asid                       0                       # Number of times TLB was flushed by ASID
system.cpu.itb.flush_tlb_mva                        0                       # Number of times TLB was flushed by MVA
system.cpu.itb.flush_tlb_mva_asid                   0                       # Number of times TLB was flushed by MVA & ASID
system.cpu.itb.hits                                 0                       # DTB hits
system.cpu.itb.inst_accesses                        0                       # ITB inst accesses
system.cpu.itb.inst_hits                            0                       # ITB inst hits
system.cpu.itb.inst_misses                          0                       # ITB inst misses
system.cpu.itb.misses                               0                       # DTB misses
system.cpu.itb.perms_faults                         0                       # Number of TLB faults due to permissions restrictions
system.cpu.itb.prefetch_faults                      0                       # Number of TLB faults due to prefetch
system.cpu.itb.read_accesses                        0                       # DTB read accesses
system.cpu.itb.read_hits                            0                       # DTB read hits
system.cpu.itb.read_misses                          0                       # DTB read misses
system.cpu.itb.stage2_mmu.stage2_tlb.accesses            0                       # DTB accesses
system.cpu.itb.stage2_mmu.stage2_tlb.align_faults            0                       # Number of TLB faults due to alignment restrictions
system.cpu.itb.stage2_mmu.stage2_tlb.domain_faults            0                       # Number of TLB faults due to domain restrictions
system.cpu.itb.stage2_mmu.stage2_tlb.flush_entries            0                       # Number of entries that have been flushed from TLB
system.cpu.itb.stage2_mmu.stage2_tlb.flush_tlb            0                       # Number of times complete TLB was flushed
system.cpu.itb.stage2_mmu.stage2_tlb.flush_tlb_asid            0                       # Number of times TLB was flushed by ASID
system.cpu.itb.stage2_mmu.stage2_tlb.flush_tlb_mva            0                       # Number of times TLB was flushed by MVA
system.cpu.itb.stage2_mmu.stage2_tlb.flush_tlb_mva_asid            0                       # Number of times TLB was flushed by MVA & ASID
system.cpu.itb.stage2_mmu.stage2_tlb.hits            0                       # DTB hits
system.cpu.itb.stage2_mmu.stage2_tlb.inst_accesses            0                       # ITB inst accesses
system.cpu.itb.stage2_mmu.stage2_tlb.inst_hits            0                       # ITB inst hits
system.cpu.itb.stage2_mmu.stage2_tlb.inst_misses            0                       # ITB inst misses
system.cpu.itb.stage2_mmu.stage2_tlb.misses            0                       # DTB misses
system.cpu.itb.stage2_mmu.stage2_tlb.perms_faults            0                       # Number of TLB faults due to permissions restrictions
system.cpu.itb.stage2_mmu.stage2_tlb.prefetch_faults            0                       # Number of TLB faults due to prefetch
system.cpu.itb.stage2_mmu.stage2_tlb.read_accesses            0                       # DTB read accesses
system.cpu.itb.stage2_mmu.stage2_tlb.read_hits            0                       # DTB read hits
system.cpu.itb.stage2_mmu.stage2_tlb.read_misses            0                       # DTB read misses
system.cpu.itb.stage2_mmu.stage2_tlb.walker.walkRequestOrigin_Requested::Data            0                       # Table walker requests started/completed, data/inst
system.cpu.itb.stage2_mmu.stage2_tlb.walker.walkRequestOrigin_Requested::Inst            0                       # Table walker requests started/completed, data/inst
system.cpu.itb.stage2_mmu.stage2_tlb.walker.walkRequestOrigin_Requested::total            0                       # Table walker requests started/completed, data/inst
system.cpu.itb.stage2_mmu.stage2_tlb.walker.walkRequestOrigin_Completed::Data            0                       # Table walker requests started/completed, data/inst
system.cpu.itb.stage2_mmu.stage2_tlb.walker.walkRequestOrigin_Completed::Inst            0                       # Table walker requests started/completed, data/inst
system.cpu.itb.stage2_mmu.stage2_tlb.walker.walkRequestOrigin_Completed::total            0                       # Table walker requests started/completed, data/inst
system.cpu.itb.stage2_mmu.stage2_tlb.walker.walkRequestOrigin::total            0                       # Table walker requests started/completed, data/inst
system.cpu.itb.stage2_mmu.stage2_tlb.walker.walks            0                       # Table walker walks requested
system.cpu.itb.stage2_mmu.stage2_tlb.write_accesses            0                       # DTB write accesses
system.cpu.itb.stage2_mmu.stage2_tlb.write_hits            0                       # DTB write hits
system.cpu.itb.stage2_mmu.stage2_tlb.write_misses            0                       # DTB write misses
system.cpu.itb.walker.walkRequestOrigin_Requested::Data            0                       # Table walker requests started/completed, data/inst
system.cpu.itb.walker.walkRequestOrigin_Requested::Inst            0                       # Table walker requests started/completed, data/inst
system.cpu.itb.walker.walkRequestOrigin_Requested::total            0                       # Table walker requests started/completed, data/inst
system.cpu.itb.walker.walkRequestOrigin_Completed::Data            0                       # Table walker requests started/completed, data/inst
system.cpu.itb.walker.walkRequestOrigin_Completed::Inst            0                       # Table walker requests started/completed, data/inst
system.cpu.itb.walker.walkRequestOrigin_Completed::total            0                       # Table walker requests started/completed, data/inst
system.cpu.itb.walker.walkRequestOrigin::total            0                       # Table walker requests started/completed, data/inst
system.cpu.itb.walker.walks                         0                       # Table walker walks requested
system.cpu.itb.write_accesses                       0                       # DTB write accesses
system.cpu.itb.write_hits                           0                       # DTB write hits
system.cpu.itb.write_misses                         0                       # DTB write misses
system.cpu.memDep0.conflictingLoads              6291                       # Number of conflicting loads.
system.cpu.memDep0.conflictingStores             6227                       # Number of conflicting stores.
system.cpu.memDep0.insertedLoads               168422                       # Number of loads inserted to the mem dependence unit.
system.cpu.memDep0.insertedStores              156343                       # Number of stores inserted to the mem dependence unit.
system.cpu.misc_regfile_reads                  814122                       # number of misc regfile reads
system.cpu.misc_regfile_writes                   7413                       # number of misc regfile writes
system.cpu.numCycles                          1233690                       # number of cpu cycles simulated
system.cpu.numWorkItemsCompleted                    0                       # number of work items this cpu completed
system.cpu.numWorkItemsStarted                      0                       # number of work items this cpu started
system.cpu.rename.BlockCycles                    3884                       # Number of cycles rename is blocking
system.cpu.rename.CommittedMaps               1169126                       # Number of HB maps that are committed
system.cpu.rename.IQFullEvents                    570                       # Number of times rename has blocked due to IQ full
system.cpu.rename.IdleCycles                   820325                       # Number of cycles rename is idle
system.cpu.rename.ROBFullEvents                     2                       # Number of times rename has blocked due to ROB full
system.cpu.rename.RenameLookups               1909166                       # Number of register rename lookups that rename has made
system.cpu.rename.RenamedInsts                1168655                       # Number of instructions processed by rename
system.cpu.rename.RenamedOperands             1235806                       # Number of destination operands rename has renamed
system.cpu.rename.RunCycles                    233737                       # Number of cycles rename is running
system.cpu.rename.SQFullEvents                   1025                       # Number of times rename has blocked due to SQ full
system.cpu.rename.SquashCycles                   4310                       # Number of cycles rename is squashing
system.cpu.rename.UnblockCycles                  7331                       # Number of cycles rename is unblocking
system.cpu.rename.UndoneMaps                    66652                       # Number of HB maps that are undone due to squashing
system.cpu.rename.int_rename_lookups          1414409                       # Number of integer rename lookups
system.cpu.rename.serializeStallCycles          38890                       # count of cycles rename stalled for serializing inst
system.cpu.rename.serializingInsts               4068                       # count of serializing insts renamed
system.cpu.rename.skidInsts                     35200                       # count of insts added to the skid buffer
system.cpu.rename.tempSerializingInsts           1165                       # count of temporary serializing insts renamed
system.cpu.rename.vec_rename_lookups            39680                       # Number of vector rename lookups
system.cpu.rob.rob_reads                      2211893                       # The number of ROB reads
system.cpu.rob.rob_writes                     2314846                       # The number of ROB writes
system.cpu.timesIdled                           21553                       # Number of times that the entire CPU went into an idle state and unscheduled itself
system.cpu.vec_regfile_reads                    39509                       # number of vector regfile reads
system.cpu.vec_regfile_writes                   22307                       # number of vector regfile writes
system.cpu.workload.numSyscalls                     7                       # Number of system calls
system.membus.snoop_filter.hit_multi_requests            0                       # Number of requests hitting in the snoop filter with multiple (>1) holders of the requested data.
system.membus.snoop_filter.hit_multi_snoops            0                       # Number of snoops hitting in the snoop filter with multiple (>1) holders of the requested data.
system.membus.snoop_filter.hit_single_requests            0                       # Number of requests hitting in the snoop filter with a single holder of the requested data.
system.membus.snoop_filter.hit_single_snoops            0                       # Number of snoops hitting in the snoop filter with a single holder of the requested data.
system.membus.snoop_filter.tot_requests           807                       # Total number of requests made to the snoop filter.
system.membus.snoop_filter.tot_snoops               0                       # Total number of snoops made to the snoop filter.
system.tol2bus.snoop_filter.hit_multi_requests            1                       # Number of requests hitting in the snoop filter with multiple (>1) holders of the requested data.
system.tol2bus.snoop_filter.hit_multi_snoops            0                       # Number of snoops hitting in the snoop filter with multiple (>1) holders of the requested data.
system.tol2bus.snoop_filter.hit_single_requests        89306                       # Number of requests hitting in the snoop filter with a single holder of the requested data.
system.tol2bus.snoop_filter.hit_single_snoops            0                       # Number of snoops hitting in the snoop filter with a single holder of the requested data.
system.tol2bus.snoop_filter.tot_requests       179039                       # Total number of requests made to the snoop filter.
system.tol2bus.snoop_filter.tot_snoops              0                       # Total number of snoops made to the snoop filter.
system.membus.trans_dist::ReadResp                616                       # Transaction distribution
system.membus.trans_dist::ReadExReq               184                       # Transaction distribution
system.membus.trans_dist::ReadExResp              184                       # Transaction distribution
system.membus.trans_dist::ReadSharedReq           616                       # Transaction distribution
system.membus.trans_dist::InvalidateReq             7                       # Transaction distribution
system.membus.pkt_count_system.l2.mem_side::system.mem_ctrls.port         1607                       # Packet count per connected master and slave (bytes)
system.membus.pkt_count::total                   1607                       # Packet count per connected master and slave (bytes)
system.membus.pkt_size_system.l2.mem_side::system.mem_ctrls.port        51200                       # Cumulative packet size per connected master and slave (bytes)
system.membus.pkt_size::total                   51200                       # Cumulative packet size per connected master and slave (bytes)
system.membus.snoops                                0                       # Total snoops (count)
system.membus.snoopTraffic                          0                       # Total snoop traffic (bytes)
system.membus.snoop_fanout::samples               807                       # Request fanout histogram
system.membus.snoop_fanout::mean                    0                       # Request fanout histogram
system.membus.snoop_fanout::stdev                   0                       # Request fanout histogram
system.membus.snoop_fanout::underflows              0      0.00%      0.00% # Request fanout histogram
system.membus.snoop_fanout::0                     807    100.00%    100.00% # Request fanout histogram
system.membus.snoop_fanout::1                       0      0.00%    100.00% # Request fanout histogram
system.membus.snoop_fanout::overflows               0      0.00%    100.00% # Request fanout histogram
system.membus.snoop_fanout::min_value               0                       # Request fanout histogram
system.membus.snoop_fanout::max_value               0                       # Request fanout histogram
system.membus.snoop_fanout::total                 807                       # Request fanout histogram
system.membus.reqLayer0.occupancy             1004000                       # Layer occupancy (ticks)
system.membus.reqLayer0.utilization               0.2                       # Layer utilization (%)
system.membus.respLayer1.occupancy            4257750                       # Layer occupancy (ticks)
system.membus.respLayer1.utilization              0.7                       # Layer utilization (%)
system.membus.power_state.pwrStateResidencyTicks::UNDEFINED    616844500                       # Cumulative time (in ticks) in various power states
system.tol2bus.trans_dist::ReadResp             89540                       # Transaction distribution
system.tol2bus.trans_dist::WritebackClean        89306                       # Transaction distribution
system.tol2bus.trans_dist::ReadExReq              184                       # Transaction distribution
system.tol2bus.trans_dist::ReadExResp             184                       # Transaction distribution
system.tol2bus.trans_dist::ReadCleanReq         89436                       # Transaction distribution
system.tol2bus.trans_dist::ReadSharedReq          106                       # Transaction distribution
system.tol2bus.trans_dist::InvalidateReq            7                       # Transaction distribution
system.tol2bus.trans_dist::InvalidateResp            7                       # Transaction distribution
system.tol2bus.pkt_count_system.cpu.icache.mem_side::system.l2.cpu_side       268176                       # Packet count per connected master and slave (bytes)
system.tol2bus.pkt_count_system.cpu.dcache.mem_side::system.l2.cpu_side          594                       # Packet count per connected master and slave (bytes)
system.tol2bus.pkt_count::total                268770                       # Packet count per connected master and slave (bytes)
system.tol2bus.pkt_size_system.cpu.icache.mem_side::system.l2.cpu_side     11439360                       # Cumulative packet size per connected master and slave (bytes)
system.tol2bus.pkt_size_system.cpu.dcache.mem_side::system.l2.cpu_side        18560                       # Cumulative packet size per connected master and slave (bytes)
system.tol2bus.pkt_size::total               11457920                       # Cumulative packet size per connected master and slave (bytes)
system.tol2bus.snoops                               0                       # Total snoops (count)
system.tol2bus.snoopTraffic                         0                       # Total snoop traffic (bytes)
system.tol2bus.snoop_fanout::samples            89733                       # Request fanout histogram
system.tol2bus.snoop_fanout::mean            0.000011                       # Request fanout histogram
system.tol2bus.snoop_fanout::stdev           0.003338                       # Request fanout histogram
system.tol2bus.snoop_fanout::underflows             0      0.00%      0.00% # Request fanout histogram
system.tol2bus.snoop_fanout::0                  89732    100.00%    100.00% # Request fanout histogram
system.tol2bus.snoop_fanout::1                      1      0.00%    100.00% # Request fanout histogram
system.tol2bus.snoop_fanout::2                      0      0.00%    100.00% # Request fanout histogram
system.tol2bus.snoop_fanout::overflows              0      0.00%    100.00% # Request fanout histogram
system.tol2bus.snoop_fanout::min_value              0                       # Request fanout histogram
system.tol2bus.snoop_fanout::max_value              1                       # Request fanout histogram
system.tol2bus.snoop_fanout::total              89733                       # Request fanout histogram
system.tol2bus.reqLayer0.occupancy          194364397                       # Layer occupancy (ticks)
system.tol2bus.reqLayer0.utilization             31.5                       # Layer utilization (%)
system.tol2bus.respLayer1.occupancy            441494                       # Layer occupancy (ticks)
system.tol2bus.respLayer1.utilization             0.1                       # Layer utilization (%)
system.tol2bus.respLayer0.occupancy         134151000                       # Layer occupancy (ticks)
system.tol2bus.respLayer0.utilization            21.7                       # Layer utilization (%)
system.tol2bus.power_state.pwrStateResidencyTicks::UNDEFINED    616844500                       # Cumulative time (in ticks) in various power states
system.voltage_domain.voltage                       1                       # Voltage in Volts
system.clk_domain.clock                          1000                       # Clock period in ticks
system.l2.demand_hits::.cpu.inst                28864                       # number of demand (read+write) hits
system.l2.demand_hits::.cpu.icache.prefetcher        60062                       # number of demand (read+write) hits
system.l2.demand_hits::total                    88926                       # number of demand (read+write) hits
system.l2.overall_hits::.cpu.inst               28864                       # number of overall hits
system.l2.overall_hits::.cpu.icache.prefetcher        60062                       # number of overall hits
system.l2.overall_hits::total                   88926                       # number of overall hits
system.l2.demand_misses::.cpu.inst                510                       # number of demand (read+write) misses
system.l2.demand_misses::.cpu.data                290                       # number of demand (read+write) misses
system.l2.demand_misses::total                    800                       # number of demand (read+write) misses
system.l2.overall_misses::.cpu.inst               510                       # number of overall misses
system.l2.overall_misses::.cpu.data               290                       # number of overall misses
system.l2.overall_misses::total                   800                       # number of overall misses
system.l2.demand_miss_latency::.cpu.inst     40070500                       # number of demand (read+write) miss cycles
system.l2.demand_miss_latency::.cpu.data     24893000                       # number of demand (read+write) miss cycles
system.l2.demand_miss_latency::total         64963500                       # number of demand (read+write) miss cycles
system.l2.overall_miss_latency::.cpu.inst     40070500                       # number of overall miss cycles
system.l2.overall_miss_latency::.cpu.data     24893000                       # number of overall miss cycles
system.l2.overall_miss_latency::total        64963500                       # number of overall miss cycles
system.l2.demand_accesses::.cpu.inst            29374                       # number of demand (read+write) accesses
system.l2.demand_accesses::.cpu.data              290                       # number of demand (read+write) accesses
system.l2.demand_accesses::.cpu.icache.prefetcher        60062                       # number of demand (read+write) accesses
system.l2.demand_accesses::total                89726                       # number of demand (read+write) accesses
system.l2.overall_accesses::.cpu.inst           29374                       # number of overall (read+write) accesses
system.l2.overall_accesses::.cpu.data             290                       # number of overall (read+write) accesses
system.l2.overall_accesses::.cpu.icache.prefetcher        60062                       # number of overall (read+write) accesses
system.l2.overall_accesses::total               89726                       # number of overall (read+write) accesses
system.l2.demand_miss_rate::.cpu.inst        0.017362                       # miss rate for demand accesses
system.l2.demand_miss_rate::.cpu.data               1                       # miss rate for demand accesses
system.l2.demand_miss_rate::total            0.008916                       # miss rate for demand accesses
system.l2.overall_miss_rate::.cpu.inst       0.017362                       # miss rate for overall accesses
system.l2.overall_miss_rate::.cpu.data              1                       # miss rate for overall accesses
system.l2.overall_miss_rate::total           0.008916                       # miss rate for overall accesses
system.l2.demand_avg_miss_latency::.cpu.inst 78569.607843                       # average overall miss latency
system.l2.demand_avg_miss_latency::.cpu.data 85837.931034                       # average overall miss latency
system.l2.demand_avg_miss_latency::total 81204.375000                       # average overall miss latency
system.l2.overall_avg_miss_latency::.cpu.inst 78569.607843                       # average overall miss latency
system.l2.overall_avg_miss_latency::.cpu.data 85837.931034                       # average overall miss latency
system.l2.overall_avg_miss_latency::total 81204.375000                       # average overall miss latency
system.l2.blocked_cycles::no_mshrs                  0                       # number of cycles access was blocked
system.l2.blocked_cycles::no_targets                0                       # number of cycles access was blocked
system.l2.blocked::no_mshrs                         0                       # number of cycles access was blocked
system.l2.blocked::no_targets                       0                       # number of cycles access was blocked
system.l2.avg_blocked_cycles::no_mshrs            nan                       # average number of cycles each access was blocked
system.l2.avg_blocked_cycles::no_targets          nan                       # average number of cycles each access was blocked
system.l2.demand_mshr_misses::.cpu.inst           510                       # number of demand (read+write) MSHR misses
system.l2.demand_mshr_misses::.cpu.data           290                       # number of demand (read+write) MSHR misses
system.l2.demand_mshr_misses::total               800                       # number of demand (read+write) MSHR misses
system.l2.overall_mshr_misses::.cpu.inst          510                       # number of overall MSHR misses
system.l2.overall_mshr_misses::.cpu.data          290                       # number of overall MSHR misses
system.l2.overall_mshr_misses::total              800                       # number of overall MSHR misses
system.l2.demand_mshr_miss_latency::.cpu.inst     34970500                       # number of demand (read+write) MSHR miss cycles
system.l2.demand_mshr_miss_latency::.cpu.data     21993000                       # number of demand (read+write) MSHR miss cycles
system.l2.demand_mshr_miss_latency::total     56963500                       # number of demand (read+write) MSHR miss cycles
system.l2.overall_mshr_miss_latency::.cpu.inst     34970500                       # number of overall MSHR miss cycles
system.l2.overall_mshr_miss_latency::.cpu.data     21993000                       # number of overall MSHR miss cycles
system.l2.overall_mshr_miss_latency::total     56963500                       # number of overall MSHR miss cycles
system.l2.demand_mshr_miss_rate::.cpu.inst     0.017362                       # mshr miss rate for demand accesses
system.l2.demand_mshr_miss_rate::.cpu.data            1                       # mshr miss rate for demand accesses
system.l2.demand_mshr_miss_rate::total       0.008916                       # mshr miss rate for demand accesses
system.l2.overall_mshr_miss_rate::.cpu.inst     0.017362                       # mshr miss rate for overall accesses
system.l2.overall_mshr_miss_rate::.cpu.data            1                       # mshr miss rate for overall accesses
system.l2.overall_mshr_miss_rate::total      0.008916                       # mshr miss rate for overall accesses
system.l2.demand_avg_mshr_miss_latency::.cpu.inst 68569.607843                       # average overall mshr miss latency
system.l2.demand_avg_mshr_miss_latency::.cpu.data 75837.931034                       # average overall mshr miss latency
system.l2.demand_avg_mshr_miss_latency::total 71204.375000                       # average overall mshr miss latency
system.l2.overall_avg_mshr_miss_latency::.cpu.inst 68569.607843                       # average overall mshr miss latency
system.l2.overall_avg_mshr_miss_latency::.cpu.data 75837.931034                       # average overall mshr miss latency
system.l2.overall_avg_mshr_miss_latency::total 71204.375000                       # average overall mshr miss latency
system.l2.replacements                              0                       # number of replacements
system.l2.WritebackClean_hits::.writebacks        89305                       # number of WritebackClean hits
system.l2.WritebackClean_hits::total            89305                       # number of WritebackClean hits
system.l2.WritebackClean_accesses::.writebacks        89305                       # number of WritebackClean accesses(hits+misses)
system.l2.WritebackClean_accesses::total        89305                       # number of WritebackClean accesses(hits+misses)
system.l2.ReadExReq_misses::.cpu.data             184                       # number of ReadExReq misses
system.l2.ReadExReq_misses::total                 184                       # number of ReadExReq misses
system.l2.ReadExReq_miss_latency::.cpu.data     15527000                       # number of ReadExReq miss cycles
system.l2.ReadExReq_miss_latency::total      15527000                       # number of ReadExReq miss cycles
system.l2.ReadExReq_accesses::.cpu.data           184                       # number of ReadExReq accesses(hits+misses)
system.l2.ReadExReq_accesses::total               184                       # number of ReadExReq accesses(hits+misses)
system.l2.ReadExReq_miss_rate::.cpu.data            1                       # miss rate for ReadExReq accesses
system.l2.ReadExReq_miss_rate::total                1                       # miss rate for ReadExReq accesses
system.l2.ReadExReq_avg_miss_latency::.cpu.data 84385.869565                       # average ReadExReq miss latency
system.l2.ReadExReq_avg_miss_latency::total 84385.869565                       # average ReadExReq miss latency
system.l2.ReadExReq_mshr_misses::.cpu.data          184                       # number of ReadExReq MSHR misses
system.l2.ReadExReq_mshr_misses::total            184                       # number of ReadExReq MSHR misses
system.l2.ReadExReq_mshr_miss_latency::.cpu.data     13687000                       # number of ReadExReq MSHR miss cycles
system.l2.ReadExReq_mshr_miss_latency::total     13687000                       # number of ReadExReq MSHR miss cycles
system.l2.ReadExReq_mshr_miss_rate::.cpu.data            1                       # mshr miss rate for ReadExReq accesses
system.l2.ReadExReq_mshr_miss_rate::total            1                       # mshr miss rate for ReadExReq accesses
system.l2.ReadExReq_avg_mshr_miss_latency::.cpu.data 74385.869565                       # average ReadExReq mshr miss latency
system.l2.ReadExReq_avg_mshr_miss_latency::total 74385.869565                       # average ReadExReq mshr miss latency
system.l2.ReadCleanReq_hits::.cpu.inst          28864                       # number of ReadCleanReq hits
system.l2.ReadCleanReq_hits::.cpu.icache.prefetcher        60062                       # number of ReadCleanReq hits
system.l2.ReadCleanReq_hits::total              88926                       # number of ReadCleanReq hits
system.l2.ReadCleanReq_misses::.cpu.inst          510                       # number of ReadCleanReq misses
system.l2.ReadCleanReq_misses::total              510                       # number of ReadCleanReq misses
system.l2.ReadCleanReq_miss_latency::.cpu.inst     40070500                       # number of ReadCleanReq miss cycles
system.l2.ReadCleanReq_miss_latency::total     40070500                       # number of ReadCleanReq miss cycles
system.l2.ReadCleanReq_accesses::.cpu.inst        29374                       # number of ReadCleanReq accesses(hits+misses)
system.l2.ReadCleanReq_accesses::.cpu.icache.prefetcher        60062                       # number of ReadCleanReq accesses(hits+misses)
system.l2.ReadCleanReq_accesses::total          89436                       # number of ReadCleanReq accesses(hits+misses)
system.l2.ReadCleanReq_miss_rate::.cpu.inst     0.017362                       # miss rate for ReadCleanReq accesses
system.l2.ReadCleanReq_miss_rate::total      0.005702                       # miss rate for ReadCleanReq accesses
system.l2.ReadCleanReq_avg_miss_latency::.cpu.inst 78569.607843                       # average ReadCleanReq miss latency
system.l2.ReadCleanReq_avg_miss_latency::total 78569.607843                       # average ReadCleanReq miss latency
system.l2.ReadCleanReq_mshr_misses::.cpu.inst          510                       # number of ReadCleanReq MSHR misses
system.l2.ReadCleanReq_mshr_misses::total          510                       # number of ReadCleanReq MSHR misses
system.l2.ReadCleanReq_mshr_miss_latency::.cpu.inst     34970500                       # number of ReadCleanReq MSHR miss cycles
system.l2.ReadCleanReq_mshr_miss_latency::total     34970500                       # number of ReadCleanReq MSHR miss cycles
system.l2.ReadCleanReq_mshr_miss_rate::.cpu.inst     0.017362                       # mshr miss rate for ReadCleanReq accesses
system.l2.ReadCleanReq_mshr_miss_rate::total     0.005702                       # mshr miss rate for ReadCleanReq accesses
[...]
system.cpu.dcache.demand_miss_latency::total     80951461                       # number of demand (read+write) miss cycles
system.cpu.dcache.overall_miss_latency::.cpu.data     80951461                       # number of overall miss cycles
system.cpu.dcache.overall_miss_latency::total     80951461                       # number of overall miss cycles
system.cpu.dcache.demand_accesses::.cpu.data       310468                       # number of demand (read+write) accesses
system.cpu.dcache.demand_accesses::total       310468                       # number of demand (read+write) accesses
system.cpu.dcache.overall_accesses::.cpu.data       311615                       # number of overall (read+write) accesses
system.cpu.dcache.overall_accesses::total       311615                       # number of overall (read+write) accesses
system.cpu.dcache.demand_miss_rate::.cpu.data     0.003485                       # miss rate for demand accesses
system.cpu.dcache.demand_miss_rate::total     0.003485                       # miss rate for demand accesses
system.cpu.dcache.overall_miss_rate::.cpu.data     0.003479                       # miss rate for overall accesses
system.cpu.dcache.overall_miss_rate::total     0.003479                       # miss rate for overall accesses
system.cpu.dcache.demand_avg_miss_latency::.cpu.data 74816.507394                       # average overall miss latency
system.cpu.dcache.demand_avg_miss_latency::total 74816.507394                       # average overall miss latency
system.cpu.dcache.overall_avg_miss_latency::.cpu.data 74678.469557                       # average overall miss latency
system.cpu.dcache.overall_avg_miss_latency::total 74678.469557                       # average overall miss latency
system.cpu.dcache.blocked_cycles::no_mshrs         2254                       # number of cycles access was blocked
system.cpu.dcache.blocked_cycles::no_targets            0                       # number of cycles access was blocked
system.cpu.dcache.blocked::no_mshrs                60                       # number of cycles access was blocked
system.cpu.dcache.blocked::no_targets               0                       # number of cycles access was blocked
system.cpu.dcache.avg_blocked_cycles::no_mshrs    37.566667                       # average number of cycles each access was blocked
system.cpu.dcache.avg_blocked_cycles::no_targets          nan                       # average number of cycles each access was blocked
system.cpu.dcache.demand_mshr_hits::.cpu.data          788                       # number of demand (read+write) MSHR hits
system.cpu.dcache.demand_mshr_hits::total          788                       # number of demand (read+write) MSHR hits
system.cpu.dcache.overall_mshr_hits::.cpu.data          788                       # number of overall MSHR hits
system.cpu.dcache.overall_mshr_hits::total          788                       # number of overall MSHR hits
system.cpu.dcache.demand_mshr_misses::.cpu.data          294                       # number of demand (read+write) MSHR misses
system.cpu.dcache.demand_mshr_misses::total          294                       # number of demand (read+write) MSHR misses
system.cpu.dcache.overall_mshr_misses::.cpu.data          296                       # number of overall MSHR misses
system.cpu.dcache.overall_mshr_misses::total          296                       # number of overall MSHR misses
system.cpu.dcache.demand_mshr_miss_latency::.cpu.data     25327994                       # number of demand (read+write) MSHR miss cycles
system.cpu.dcache.demand_mshr_miss_latency::total     25327994                       # number of demand (read+write) MSHR miss cycles
system.cpu.dcache.overall_mshr_miss_latency::.cpu.data     25487494                       # number of overall MSHR miss cycles
system.cpu.dcache.overall_mshr_miss_latency::total     25487494                       # number of overall MSHR miss cycles
system.cpu.dcache.demand_mshr_miss_rate::.cpu.data     0.000947                       # mshr miss rate for demand accesses
system.cpu.dcache.demand_mshr_miss_rate::total     0.000947                       # mshr miss rate for demand accesses
system.cpu.dcache.overall_mshr_miss_rate::.cpu.data     0.000950                       # mshr miss rate for overall accesses
system.cpu.dcache.overall_mshr_miss_rate::total     0.000950                       # mshr miss rate for overall accesses
system.cpu.dcache.demand_avg_mshr_miss_latency::.cpu.data 86149.639456                       # average overall mshr miss latency
system.cpu.dcache.demand_avg_mshr_miss_latency::total 86149.639456                       # average overall mshr miss latency
system.cpu.dcache.overall_avg_mshr_miss_latency::.cpu.data 86106.398649                       # average overall mshr miss latency
system.cpu.dcache.overall_avg_mshr_miss_latency::total 86106.398649                       # average overall mshr miss latency
system.cpu.dcache.replacements                      0                       # number of replacements
system.cpu.dcache.ReadReq_hits::.cpu.data       158876                       # number of ReadReq hits
system.cpu.dcache.ReadReq_hits::total          158876                       # number of ReadReq hits
system.cpu.dcache.ReadReq_misses::.cpu.data          232                       # number of ReadReq misses
system.cpu.dcache.ReadReq_misses::total           232                       # number of ReadReq misses
system.cpu.dcache.ReadReq_miss_latency::.cpu.data     18895500                       # number of ReadReq miss cycles
system.cpu.dcache.ReadReq_miss_latency::total     18895500                       # number of ReadReq miss cycles
system.cpu.dcache.ReadReq_accesses::.cpu.data       159108                       # number of ReadReq accesses(hits+misses)
system.cpu.dcache.ReadReq_accesses::total       159108                       # number of ReadReq accesses(hits+misses)
system.cpu.dcache.ReadReq_miss_rate::.cpu.data     0.001458                       # miss rate for ReadReq accesses
system.cpu.dcache.ReadReq_miss_rate::total     0.001458                       # miss rate for ReadReq accesses
system.cpu.dcache.ReadReq_avg_miss_latency::.cpu.data 81446.120690                       # average ReadReq miss latency
system.cpu.dcache.ReadReq_avg_miss_latency::total 81446.120690                       # average ReadReq miss latency
system.cpu.dcache.ReadReq_mshr_hits::.cpu.data          129                       # number of ReadReq MSHR hits
system.cpu.dcache.ReadReq_mshr_hits::total          129                       # number of ReadReq MSHR hits
system.cpu.dcache.ReadReq_mshr_misses::.cpu.data          103                       # number of ReadReq MSHR misses
system.cpu.dcache.ReadReq_mshr_misses::total          103                       # number of ReadReq MSHR misses
system.cpu.dcache.ReadReq_mshr_miss_latency::.cpu.data      9286000                       # number of ReadReq MSHR miss cycles
system.cpu.dcache.ReadReq_mshr_miss_latency::total      9286000                       # number of ReadReq MSHR miss cycles
system.cpu.dcache.ReadReq_mshr_miss_rate::.cpu.data     0.000647                       # mshr miss rate for ReadReq accesses
system.cpu.dcache.ReadReq_mshr_miss_rate::total     0.000647                       # mshr miss rate for ReadReq accesses
system.cpu.dcache.ReadReq_avg_mshr_miss_latency::.cpu.data 90155.339806                       # average ReadReq mshr miss latency
system.cpu.dcache.ReadReq_avg_mshr_miss_latency::total 90155.339806                       # average ReadReq mshr miss latency
system.cpu.dcache.WriteReq_hits::.cpu.data       150510                       # number of WriteReq hits
system.cpu.dcache.WriteReq_hits::total         150510                       # number of WriteReq hits
system.cpu.dcache.WriteReq_misses::.cpu.data          843                       # number of WriteReq misses
system.cpu.dcache.WriteReq_misses::total          843                       # number of WriteReq misses
system.cpu.dcache.WriteReq_miss_latency::.cpu.data     61833463                       # number of WriteReq miss cycles
system.cpu.dcache.WriteReq_miss_latency::total     61833463                       # number of WriteReq miss cycles
system.cpu.dcache.WriteReq_accesses::.cpu.data       151353                       # number of WriteReq accesses(hits+misses)
system.cpu.dcache.WriteReq_accesses::total       151353                       # number of WriteReq accesses(hits+misses)
system.cpu.dcache.WriteReq_miss_rate::.cpu.data     0.005570                       # miss rate for WriteReq accesses
system.cpu.dcache.WriteReq_miss_rate::total     0.005570                       # miss rate for WriteReq accesses
system.cpu.dcache.WriteReq_avg_miss_latency::.cpu.data 73349.303677                       # average WriteReq miss latency
system.cpu.dcache.WriteReq_avg_miss_latency::total 73349.303677                       # average WriteReq miss latency
system.cpu.dcache.WriteReq_mshr_hits::.cpu.data          659                       # number of WriteReq MSHR hits
system.cpu.dcache.WriteReq_mshr_hits::total          659                       # number of WriteReq MSHR hits
system.cpu.dcache.WriteReq_mshr_misses::.cpu.data          184                       # number of WriteReq MSHR misses
system.cpu.dcache.WriteReq_mshr_misses::total          184                       # number of WriteReq MSHR misses
system.cpu.dcache.WriteReq_mshr_miss_latency::.cpu.data     15826496                       # number of WriteReq MSHR miss cycles
system.cpu.dcache.WriteReq_mshr_miss_latency::total     15826496                       # number of WriteReq MSHR miss cycles
system.cpu.dcache.WriteReq_mshr_miss_rate::.cpu.data     0.001216                       # mshr miss rate for WriteReq accesses
system.cpu.dcache.WriteReq_mshr_miss_rate::total     0.001216                       # mshr miss rate for WriteReq accesses
system.cpu.dcache.WriteReq_avg_mshr_miss_latency::.cpu.data 86013.565217                       # average WriteReq mshr miss latency
system.cpu.dcache.WriteReq_avg_mshr_miss_latency::total 86013.565217                       # average WriteReq mshr miss latency
system.cpu.dcache.SoftPFReq_hits::.cpu.data         1145                       # number of SoftPFReq hits
system.cpu.dcache.SoftPFReq_hits::total          1145                       # number of SoftPFReq hits
system.cpu.dcache.SoftPFReq_misses::.cpu.data            2                       # number of SoftPFReq misses
system.cpu.dcache.SoftPFReq_misses::total            2                       # number of SoftPFReq misses
system.cpu.dcache.SoftPFReq_accesses::.cpu.data         1147                       # number of SoftPFReq accesses(hits+misses)
system.cpu.dcache.SoftPFReq_accesses::total         1147                       # number of SoftPFReq accesses(hits+misses)
system.cpu.dcache.SoftPFReq_miss_rate::.cpu.data     0.001744                       # miss rate for SoftPFReq accesses
system.cpu.dcache.SoftPFReq_miss_rate::total     0.001744                       # miss rate for SoftPFReq accesses
system.cpu.dcache.SoftPFReq_mshr_misses::.cpu.data            2                       # number of SoftPFReq MSHR misses
system.cpu.dcache.SoftPFReq_mshr_misses::total            2                       # number of SoftPFReq MSHR misses
system.cpu.dcache.SoftPFReq_mshr_miss_latency::.cpu.data       159500                       # number of SoftPFReq MSHR miss cycles
system.cpu.dcache.SoftPFReq_mshr_miss_latency::total       159500                       # number of SoftPFReq MSHR miss cycles
system.cpu.dcache.SoftPFReq_mshr_miss_rate::.cpu.data     0.001744                       # mshr miss rate for SoftPFReq accesses
system.cpu.dcache.SoftPFReq_mshr_miss_rate::total     0.001744                       # mshr miss rate for SoftPFReq accesses
system.cpu.dcache.SoftPFReq_avg_mshr_miss_latency::.cpu.data        79750                       # average SoftPFReq mshr miss latency
system.cpu.dcache.SoftPFReq_avg_mshr_miss_latency::total        79750                       # average SoftPFReq mshr miss latency
system.cpu.dcache.WriteLineReq_misses::.cpu.data            7                       # number of WriteLineReq misses
system.cpu.dcache.WriteLineReq_misses::total            7                       # number of WriteLineReq misses
system.cpu.dcache.WriteLineReq_miss_latency::.cpu.data       222498                       # number of WriteLineReq miss cycles
system.cpu.dcache.WriteLineReq_miss_latency::total       222498                       # number of WriteLineReq miss cycles
system.cpu.dcache.WriteLineReq_accesses::.cpu.data            7                       # number of WriteLineReq accesses(hits+misses)
system.cpu.dcache.WriteLineReq_accesses::total            7                       # number of WriteLineReq accesses(hits+misses)
system.cpu.dcache.WriteLineReq_miss_rate::.cpu.data            1                       # miss rate for WriteLineReq accesses
system.cpu.dcache.WriteLineReq_miss_rate::total            1                       # miss rate for WriteLineReq accesses
system.cpu.dcache.WriteLineReq_avg_miss_latency::.cpu.data 31785.428571                       # average WriteLineReq miss latency
system.cpu.dcache.WriteLineReq_avg_miss_latency::total 31785.428571                       # average WriteLineReq miss latency
system.cpu.dcache.WriteLineReq_mshr_misses::.cpu.data            7                       # number of WriteLineReq MSHR misses
system.cpu.dcache.WriteLineReq_mshr_misses::total            7                       # number of WriteLineReq MSHR misses
system.cpu.dcache.WriteLineReq_mshr_miss_latency::.cpu.data       215498                       # number of WriteLineReq MSHR miss cycles
system.cpu.dcache.WriteLineReq_mshr_miss_latency::total       215498                       # number of WriteLineReq MSHR miss cycles
system.cpu.dcache.WriteLineReq_mshr_miss_rate::.cpu.data            1                       # mshr miss rate for WriteLineReq accesses
system.cpu.dcache.WriteLineReq_mshr_miss_rate::total            1                       # mshr miss rate for WriteLineReq accesses
system.cpu.dcache.WriteLineReq_avg_mshr_miss_latency::.cpu.data 30785.428571                       # average WriteLineReq mshr miss latency
system.cpu.dcache.WriteLineReq_avg_mshr_miss_latency::total 30785.428571                       # average WriteLineReq mshr miss latency
system.cpu.dcache.LoadLockedReq_hits::.cpu.data         1143                       # number of LoadLockedReq hits
system.cpu.dcache.LoadLockedReq_hits::total         1143                       # number of LoadLockedReq hits
system.cpu.dcache.LoadLockedReq_misses::.cpu.data            2                       # number of LoadLockedReq misses
system.cpu.dcache.LoadLockedReq_misses::total            2                       # number of LoadLockedReq misses
system.cpu.dcache.LoadLockedReq_miss_latency::.cpu.data       173000                       # number of LoadLockedReq miss cycles
system.cpu.dcache.LoadLockedReq_miss_latency::total       173000                       # number of LoadLockedReq miss cycles
system.cpu.dcache.LoadLockedReq_accesses::.cpu.data         1145                       # number of LoadLockedReq accesses(hits+misses)
system.cpu.dcache.LoadLockedReq_accesses::total         1145                       # number of LoadLockedReq accesses(hits+misses)
system.cpu.dcache.LoadLockedReq_miss_rate::.cpu.data     0.001747                       # miss rate for LoadLockedReq accesses
system.cpu.dcache.LoadLockedReq_miss_rate::total     0.001747                       # miss rate for LoadLockedReq accesses
system.cpu.dcache.LoadLockedReq_avg_miss_latency::.cpu.data        86500                       # average LoadLockedReq miss latency
system.cpu.dcache.LoadLockedReq_avg_miss_latency::total        86500                       # average LoadLockedReq miss latency
system.cpu.dcache.LoadLockedReq_mshr_hits::.cpu.data            1                       # number of LoadLockedReq MSHR hits
system.cpu.dcache.LoadLockedReq_mshr_hits::total            1                       # number of LoadLockedReq MSHR hits
system.cpu.dcache.LoadLockedReq_mshr_misses::.cpu.data            1                       # number of LoadLockedReq MSHR misses
system.cpu.dcache.LoadLockedReq_mshr_misses::total            1                       # number of LoadLockedReq MSHR misses
system.cpu.dcache.LoadLockedReq_mshr_miss_latency::.cpu.data        85500                       # number of LoadLockedReq MSHR miss cycles
system.cpu.dcache.LoadLockedReq_mshr_miss_latency::total        85500                       # number of LoadLockedReq MSHR miss cycles
system.cpu.dcache.LoadLockedReq_mshr_miss_rate::.cpu.data     0.000873                       # mshr miss rate for LoadLockedReq accesses
system.cpu.dcache.LoadLockedReq_mshr_miss_rate::total     0.000873                       # mshr miss rate for LoadLockedReq accesses
system.cpu.dcache.LoadLockedReq_avg_mshr_miss_latency::.cpu.data        85500                       # average LoadLockedReq mshr miss latency
system.cpu.dcache.LoadLockedReq_avg_mshr_miss_latency::total        85500                       # average LoadLockedReq mshr miss latency
system.cpu.dcache.StoreCondReq_hits::.cpu.data         1143                       # number of StoreCondReq hits
system.cpu.dcache.StoreCondReq_hits::total         1143                       # number of StoreCondReq hits
system.cpu.dcache.StoreCondReq_accesses::.cpu.data         1143                       # number of StoreCondReq accesses(hits+misses)
system.cpu.dcache.StoreCondReq_accesses::total         1143                       # number of StoreCondReq accesses(hits+misses)
system.cpu.dcache.power_state.pwrStateResidencyTicks::UNDEFINED    616844500                       # Cumulative time (in ticks) in various power states
system.cpu.dcache.tags.tagsinuse           251.077886                       # Cycle average of tags in use
system.cpu.dcache.tags.total_refs              313114                       # Total number of references to valid blocks.
system.cpu.dcache.tags.sampled_refs               297                       # Sample count of references to valid blocks.
system.cpu.dcache.tags.avg_refs           1054.255892                       # Average number of references to valid blocks.
system.cpu.dcache.tags.warmup_cycle            176500                       # Cycle when the warmup percentage was hit.
system.cpu.dcache.tags.occ_blocks::.cpu.data   251.077886                       # Average occupied blocks per requestor
system.cpu.dcache.tags.occ_percent::.cpu.data     0.245193                       # Average percentage of cache occupancy
system.cpu.dcache.tags.occ_percent::total     0.245193                       # Average percentage of cache occupancy
system.cpu.dcache.tags.occ_task_id_blocks::1024          297                       # Occupied blocks per task id
system.cpu.dcache.tags.age_task_id_blocks_1024::0            1                       # Occupied blocks per task id
system.cpu.dcache.tags.age_task_id_blocks_1024::1           12                       # Occupied blocks per task id
system.cpu.dcache.tags.age_task_id_blocks_1024::2          284                       # Occupied blocks per task id
system.cpu.dcache.tags.occ_task_id_percent::1024     0.290039                       # Percentage of cache occupancy per task id
system.cpu.dcache.tags.tag_accesses            628103                       # Number of tag accesses
system.cpu.dcache.tags.data_accesses           628103                       # Number of data accesses
system.cpu.dcache.tags.power_state.pwrStateResidencyTicks::UNDEFINED    616844500                       # Cumulative time (in ticks) in various power states
system.cpu.power_state.pwrStateResidencyTicks::ON    616844500                       # Cumulative time (in ticks) in various power states

---------- End Simulation Statistics   ----------
