
---------- Begin Simulation Statistics ----------
final_tick                                 1206607500                       # Number of ticks from beginning of simulation (restored from checkpoints and never reset)
host_inst_rate                                 174963                       # Simulator instruction rate (inst/s)
host_mem_usage                                 869148                       # Number of bytes of host memory used
host_op_rate                                   184622                       # Simulator op (including micro ops) rate (op/s)
host_seconds                                    24.17                       # Real time elapsed on the host
host_tick_rate                               49926742                       # Simulator tick rate (ticks/s)
sim_freq                                 1000000000000                       # Frequency of simulated ticks
sim_insts                                     4228395                       # Number of instructions simulated
sim_ops                                       4461863                       # Number of ops (including micro ops) simulated
sim_seconds                                  0.001207                       # Number of seconds simulated
sim_ticks                                  1206607500                       # Number of ticks simulated
system.cpu.branchPred.BTBCorrect                    0                       # Number of correct BTB predictions (this stat may not work properly.
system.cpu.branchPred.BTBHitPct             98.969914                       # BTB Hit Percentage
system.cpu.branchPred.BTBHits                  331954                       # Number of BTB hits
system.cpu.branchPred.BTBLookups               335409                       # Number of BTB lookups
system.cpu.branchPred.RASInCorrect                  2                       # Number of incorrect RAS predictions.
system.cpu.branchPred.condIncorrect              4568                       # Number of conditional branches incorrect
system.cpu.branchPred.condPredicted            374737                       # Number of conditional branches predicted
system.cpu.branchPred.indirectHits               1147                       # Number of indirect target hits.
system.cpu.branchPred.indirectLookups            1999                       # Number of indirect predictor lookups.
system.cpu.branchPred.indirectMisses              852                       # Number of indirect misses.
system.cpu.branchPred.lookups                  512282                       # Number of BP lookups
system.cpu.branchPred.usedRAS                   64442                       # Number of times the RAS was used to get a target.
system.cpu.branchPredindirectMispredicted          302                       # Number of mispredicted indirect branches.
system.cpu.cc_regfile_reads                    886352                       # number of cc regfile reads
system.cpu.cc_regfile_writes                   883364                       # number of cc regfile writes
system.cpu.commit.amos                              0                       # Number of atomic instructions committed
system.cpu.commit.branchMispredicts              3654                       # The number of times a branch was mispredicted
system.cpu.commit.branches                     487016                       # Number of branches committed
system.cpu.commit.bw_lim_events                364074                       # number cycles where commit BW limit reached
system.cpu.commit.commitNonSpecStalls             313                       # The number of times commit has been forced to stall to communicate backwards
system.cpu.commit.commitSquashedInsts           90856                       # The number of squashed insts skipped by commit
system.cpu.commit.committedInsts              4228952                       # Number of instructions committed
system.cpu.commit.committedOps                4462420                       # Number of ops (including micro ops) committed
system.cpu.commit.committed_per_cycle::samples      2244379                       # Number of insts commited each cycle
system.cpu.commit.committed_per_cycle::mean     1.988265                       # Number of insts commited each cycle
system.cpu.commit.committed_per_cycle::stdev     2.967385                       # Number of insts commited each cycle
system.cpu.commit.committed_per_cycle::underflows            0      0.00%      0.00% # Number of insts commited each cycle
system.cpu.commit.committed_per_cycle::0      1177716     52.47%     52.47% # Number of insts commited each cycle
system.cpu.commit.committed_per_cycle::1       298857     13.32%     65.79% # Number of insts commited each cycle
system.cpu.commit.committed_per_cycle::2       268440     11.96%     77.75% # Number of insts commited each cycle
system.cpu.commit.committed_per_cycle::3        16911      0.75%     78.50% # Number of insts commited each cycle
system.cpu.commit.committed_per_cycle::4         8332      0.37%     78.88% # Number of insts commited each cycle
system.cpu.commit.committed_per_cycle::5        53930      2.40%     81.28% # Number of insts commited each cycle
system.cpu.commit.committed_per_cycle::6        32453      1.45%     82.72% # Number of insts commited each cycle
system.cpu.commit.committed_per_cycle::7        23666      1.05%     83.78% # Number of insts commited each cycle
system.cpu.commit.committed_per_cycle::8       364074     16.22%    100.00% # Number of insts commited each cycle
system.cpu.commit.committed_per_cycle::overflows            0      0.00%    100.00% # Number of insts commited each cycle
system.cpu.commit.committed_per_cycle::min_value            0                       # Number of insts commited each cycle
system.cpu.commit.committed_per_cycle::max_value            8                       # Number of insts commited each cycle
system.cpu.commit.committed_per_cycle::total      2244379                       # Number of insts commited each cycle
system.cpu.commit.fp_insts                          0                       # Number of committed floating point instructions.
system.cpu.commit.function_calls                63038                       # Number of function calls committed.
system.cpu.commit.int_insts                   2716588                       # Number of committed integer instructions.
system.cpu.commit.loads                        501197                       # Number of loads committed
system.cpu.commit.membars                         278                       # Number of memory barriers committed
system.cpu.commit.op_class_0::No_OpClass          165      0.00%      0.00% # Class of committed instruction
system.cpu.commit.op_class_0::IntAlu          2086122     46.75%     46.75% # Class of committed instruction
system.cpu.commit.op_class_0::IntMult            3338      0.07%     46.83% # Class of committed instruction
system.cpu.commit.op_class_0::IntDiv              459      0.01%     46.84% # Class of committed instruction
system.cpu.commit.op_class_0::FloatAdd         334068      7.49%     54.32% # Class of committed instruction
system.cpu.commit.op_class_0::FloatCmp              4      0.00%     54.32% # Class of committed instruction
system.cpu.commit.op_class_0::FloatCvt          76968      1.72%     56.05% # Class of committed instruction
system.cpu.commit.op_class_0::FloatMult        257002      5.76%     61.81% # Class of committed instruction
system.cpu.commit.op_class_0::FloatMultAcc       811455     18.18%     79.99% # Class of committed instruction
system.cpu.commit.op_class_0::FloatDiv              3      0.00%     79.99% # Class of committed instruction
system.cpu.commit.op_class_0::FloatMisc        176468      3.95%     83.95% # Class of committed instruction
system.cpu.commit.op_class_0::FloatSqrt             0      0.00%     83.95% # Class of committed instruction
system.cpu.commit.op_class_0::SimdAdd             385      0.01%     83.96% # Class of committed instruction
system.cpu.commit.op_class_0::SimdAddAcc            0      0.00%     83.96% # Class of committed instruction
system.cpu.commit.op_class_0::SimdAlu             504      0.01%     83.97% # Class of committed instruction
system.cpu.commit.op_class_0::SimdCmp             460      0.01%     83.98% # Class of committed instruction
system.cpu.commit.op_class_0::SimdCvt               0      0.00%     83.98% # Class of committed instruction
system.cpu.commit.op_class_0::SimdMisc            477      0.01%     83.99% # Class of committed instruction
system.cpu.commit.op_class_0::SimdMult              0      0.00%     83.99% # Class of committed instruction
system.cpu.commit.op_class_0::SimdMultAcc            0      0.00%     83.99% # Class of committed instruction
system.cpu.commit.op_class_0::SimdShift             0      0.00%     83.99% # Class of committed instruction
system.cpu.commit.op_class_0::SimdShiftAcc            0      0.00%     83.99% # Class of committed instruction
system.cpu.commit.op_class_0::SimdDiv               0      0.00%     83.99% # Class of committed instruction
system.cpu.commit.op_class_0::SimdSqrt              0      0.00%     83.99% # Class of committed instruction
system.cpu.commit.op_class_0::SimdFloatAdd            0      0.00%     83.99% # Class of committed instruction
system.cpu.commit.op_class_0::SimdFloatAlu            0      0.00%     83.99% # Class of committed instruction
system.cpu.commit.op_class_0::SimdFloatCmp            0      0.00%     83.99% # Class of committed instruction
system.cpu.commit.op_class_0::SimdFloatCvt            0      0.00%     83.99% # Class of committed instruction
system.cpu.commit.op_class_0::SimdFloatDiv            0      0.00%     83.99% # Class of committed instruction
system.cpu.commit.op_class_0::SimdFloatMisc            0      0.00%     83.99% # Class of committed instruction
system.cpu.commit.op_class_0::SimdFloatMult            0      0.00%     83.99% # Class of committed instruction
system.cpu.commit.op_class_0::SimdFloatMultAcc            0      0.00%     83.99% # Class of committed instruction
system.cpu.commit.op_class_0::SimdFloatSqrt            0      0.00%     83.99% # Class of committed instruction
system.cpu.commit.op_class_0::SimdReduceAdd            0      0.00%     83.99% # Class of committed instruction
system.cpu.commit.op_class_0::SimdReduceAlu            0      0.00%     83.99% # Class of committed instruction
system.cpu.commit.op_class_0::SimdReduceCmp            0      0.00%     83.99% # Class of committed instruction
system.cpu.commit.op_class_0::SimdFloatReduceAdd            0      0.00%     83.99% # Class of committed instruction
system.cpu.commit.op_class_0::SimdFloatReduceCmp            0      0.00%     83.99% # Class of committed instruction
system.cpu.commit.op_class_0::SimdAes               0      0.00%     83.99% # Class of committed instruction
system.cpu.commit.op_class_0::SimdAesMix            0      0.00%     83.99% # Class of committed instruction
system.cpu.commit.op_class_0::SimdSha1Hash            0      0.00%     83.99% # Class of committed instruction
system.cpu.commit.op_class_0::SimdSha1Hash2            0      0.00%     83.99% # Class of committed instruction
system.cpu.commit.op_class_0::SimdSha256Hash            0      0.00%     83.99% # Class of committed instruction
system.cpu.commit.op_class_0::SimdSha256Hash2            0      0.00%     83.99% # Class of committed instruction
system.cpu.commit.op_class_0::SimdShaSigma2            0      0.00%     83.99% # Class of committed instruction
system.cpu.commit.op_class_0::SimdShaSigma3            0      0.00%     83.99% # Class of committed instruction
system.cpu.commit.op_class_0::SimdPredAlu            0      0.00%     83.99% # Class of committed instruction
system.cpu.commit.op_class_0::MemRead          501197     11.23%     95.22% # Class of committed instruction
system.cpu.commit.op_class_0::MemWrite         213345      4.78%    100.00% # Class of committed instruction
system.cpu.commit.op_class_0::FloatMemRead            0      0.00%    100.00% # Class of committed instruction
system.cpu.commit.op_class_0::FloatMemWrite            0      0.00%    100.00% # Class of committed instruction
system.cpu.commit.op_class_0::IprAccess             0      0.00%    100.00% # Class of committed instruction
system.cpu.commit.op_class_0::InstPrefetch            0      0.00%    100.00% # Class of committed instruction
system.cpu.commit.op_class_0::total           4462420                       # Class of committed instruction
system.cpu.commit.refs                         714542                       # Number of memory references committed
system.cpu.commit.swp_count                         0                       # Number of s/w prefetches committed
system.cpu.commit.vec_insts                   2111732                       # Number of committed Vector instructions.
system.cpu.committedInsts                     4228395                       # Number of Instructions Simulated
system.cpu.committedOps                       4461863                       # Number of Ops (including micro ops) Simulated
system.cpu.cpi                               0.570717                       # CPI: Cycles Per Instruction
system.cpu.cpi_total                         0.570717                       # CPI: Total CPI of All Threads
system.cpu.decode.BlockedCycles                343711                       # Number of cycles decode is blocked
system.cpu.decode.BranchMispred                   927                       # Number of times decode detected a branch misprediction
system.cpu.decode.BranchResolved               331994                       # Number of times decode resolved a branch
system.cpu.decode.DecodedInsts                4577317                       # Number of instructions handled by decode
system.cpu.decode.IdleCycles                   940607                       # Number of cycles decode is idle
system.cpu.decode.RunCycles                    951537                       # Number of cycles decode is running
system.cpu.decode.SquashCycles                   4034                       # Number of cycles decode is squashing
system.cpu.decode.SquashedInsts                  3332                       # Number of squashed instructions handled by decode
system.cpu.decode.UnblockCycles                 18343                       # Number of cycles decode is unblocking
system.cpu.dtb.accesses                             0                       # DTB accesses
system.cpu.dtb.align_faults                         0                       # Number of TLB faults due to alignment restrictions
system.cpu.dtb.domain_faults                        0                       # Number of TLB faults due to domain restrictions
system.cpu.dtb.flush_entries                        0                       # Number of entries that have been flushed from TLB
system.cpu.dtb.flush_tlb                            0                       # Number of times complete TLB was flushed
system.cpu.dtb.flush_tlb_asid                       0                       # Number of times TLB was flushed by ASID
system.cpu.dtb.flush_tlb_mva                        0                       # Number of times TLB was flushed by MVA
system.cpu.dtb.flush_tlb_mva_asid                   0                       # Number of times TLB was flushed by MVA & ASID
system.cpu.dtb.hits                                 0                       # DTB hits
system.cpu.dtb.inst_accesses                        0                       # ITB inst accesses
system.cpu.dtb.inst_hits                            0                       # ITB inst hits
system.cpu.dtb.inst_misses                          0                       # ITB inst misses
system.cpu.dtb.misses                               0                       # DTB misses
system.cpu.dtb.perms_faults                         0                       # Number of TLB faults due to permissions restrictions
system.cpu.dtb.prefetch_faults                      0                       # Number of TLB faults due to prefetch
system.cpu.dtb.read_accesses                        0                       # DTB read accesses
system.cpu.dtb.read_hits                            0                       # DTB read hits
system.cpu.dtb.read_misses                          0                       # DTB read misses
system.cpu.dtb.stage2_mmu.stage2_tlb.accesses            0                       # DTB accesses
system.cpu.dtb.stage2_mmu.stage2_tlb.align_faults            0                       # Number of TLB faults due to alignment restrictions
system.cpu.dtb.stage2_mmu.stage2_tlb.domain_faults            0                       # Number of TLB faults due to domain restrictions
system.cpu.dtb.stage2_mmu.stage2_tlb.flush_entries            0                       # Number of entries that have been flushed from TLB
system.cpu.dtb.stage2_mmu.stage2_tlb.flush_tlb            0                       # Number of times complete TLB was flushed
system.cpu.dtb.stage2_mmu.stage2_tlb.flush_tlb_asid            0                       # Number of times TLB was flushed by ASID
system.cpu.dtb.stage2_mmu.stage2_tlb.flush_tlb_mva            0                       # Number of times TLB was flushed by MVA
system.cpu.dtb.stage2_mmu.stage2_tlb.flush_tlb_mva_asid            0                       # Number of times TLB was flushed by MVA & ASID
system.cpu.dtb.stage2_mmu.stage2_tlb.hits            0                       # DTB hits
system.cpu.dtb.stage2_mmu.stage2_tlb.inst_accesses            0                       # ITB inst accesses
system.cpu.dtb.stage2_mmu.stage2_tlb.inst_hits            0                       # ITB inst hits
system.cpu.dtb.stage2_mmu.stage2_tlb.inst_misses            0                       # ITB inst misses
system.cpu.dtb.stage2_mmu.stage2_tlb.misses            0                       # DTB misses
system.cpu.dtb.stage2_mmu.stage2_tlb.perms_faults            0                       # Number of TLB faults due to permissions restrictions
system.cpu.dtb.stage2_mmu.stage2_tlb.prefetch_faults            0                       # Number of TLB faults due to prefetch
system.cpu.dtb.stage2_mmu.stage2_tlb.read_accesses            0                       # DTB read accesses
system.cpu.dtb.stage2_mmu.stage2_tlb.read_hits            0                       # DTB read hits
system.cpu.dtb.stage2_mmu.stage2_tlb.read_misses            0                       # DTB read misses
system.cpu.dtb.stage2_mmu.stage2_tlb.walker.walkRequestOrigin_Requested::Data            0                       # Table walker requests started/completed, data/inst
system.cpu.dtb.stage2_mmu.stage2_tlb.walker.walkRequestOrigin_Requested::Inst            0                       # Table walker requests started/completed, data/inst
system.cpu.dtb.stage2_mmu.stage2_tlb.walker.walkRequestOrigin_Requested::total            0                       # Table walker requests started/completed, data/inst
system.cpu.dtb.stage2_mmu.stage2_tlb.walker.walkRequestOrigin_Completed::Data            0                       # Table walker requests started/completed, data/inst
system.cpu.dtb.stage2_mmu.stage2_tlb.walker.walkRequestOrigin_Completed::Inst            0                       # Table walker requests started/completed, data/inst
system.cpu.dtb.stage2_mmu.stage2_tlb.walker.walkRequestOrigin_Completed::total            0                       # Table walker requests started/completed, data/inst
system.cpu.dtb.stage2_mmu.stage2_tlb.walker.walkRequestOrigin::total            0                       # Table walker requests started/completed, data/inst
system.cpu.dtb.stage2_mmu.stage2_tlb.walker.walks            0                       # Table walker walks requested
system.cpu.dtb.stage2_mmu.stage2_tlb.write_accesses            0                       # DTB write accesses
system.cpu.dtb.stage2_mmu.stage2_tlb.write_hits            0                       # DTB write hits
system.cpu.dtb.stage2_mmu.stage2_tlb.write_misses            0                       # DTB write misses
system.cpu.dtb.walker.walkRequestOrigin_Requested::Data            0                       # Table walker requests started/completed, data/inst
system.cpu.dtb.walker.walkRequestOrigin_Requested::Inst            0                       # Table walker requests started/completed, data/inst
system.cpu.dtb.walker.walkRequestOrigin_Requested::total            0                       # Table walker requests started/completed, data/inst
system.cpu.dtb.walker.walkRequestOrigin_Completed::Data            0                       # Table walker requests started/completed, data/inst
system.cpu.dtb.walker.walkRequestOrigin_Completed::Inst            0                       # Table walker requests started/completed, data/inst
system.cpu.dtb.walker.walkRequestOrigin_Completed::total            0                       # Table walker requests started/completed, data/inst
system.cpu.dtb.walker.walkRequestOrigin::total            0                       # Table walker requests started/completed, data/inst
system.cpu.dtb.walker.walks                         0                       # Table walker walks requested
system.cpu.dtb.write_accesses                       0                       # DTB write accesses
system.cpu.dtb.write_hits                           0                       # DTB write hits
system.cpu.dtb.write_misses                         0                       # DTB write misses
system.cpu.fetch.Branches                      512282                       # Number of branches that fetch encountered
system.cpu.fetch.CacheLines                    712296                       # Number of cache lines fetched
system.cpu.fetch.Cycles                       1195622                       # Number of cycles fetch has run and was not squashing or blocked
system.cpu.fetch.IcacheSquashes                  3389                       # Number of outstanding Icache misses that were squashed
system.cpu.fetch.IcacheWaitRetryStallCycles          280                       # Number of stall cycles due to full MSHR
system.cpu.fetch.Insts                        4352312                       # Number of instructions fetch has processed
system.cpu.fetch.MiscStallCycles                   46                       # Number of cycles fetch has spent waiting on interrupts, or bad addresses, or out of MSHRs
system.cpu.fetch.SquashCycles                    9896                       # Number of cycles fetch has spent squashing
system.cpu.fetch.branchRate                  0.212282                       # Number of branch fetches per cycle
system.cpu.fetch.icacheStallCycles            1057336                       # Number of cycles fetch is stalled on an Icache miss
system.cpu.fetch.predictedBranches             397543                       # Number of branches that fetch has predicted taken
system.cpu.fetch.rate                        1.803530                       # Number of inst fetches per cycle
system.cpu.fetch.rateDist::samples            2258232                       # Number of instructions fetched each cycle (Total)
system.cpu.fetch.rateDist::mean              2.034818                       # Number of instructions fetched each cycle (Total)
system.cpu.fetch.rateDist::stdev             2.836683                       # Number of instructions fetched each cycle (Total)
system.cpu.fetch.rateDist::underflows               0      0.00%      0.00% # Number of instructions fetched each cycle (Total)
system.cpu.fetch.rateDist::0                  1220051     54.03%     54.03% # Number of instructions fetched each cycle (Total)
system.cpu.fetch.rateDist::1                   190761      8.45%     62.47% # Number of instructions fetched each cycle (Total)
system.cpu.fetch.rateDist::2                   133935      5.93%     68.41% # Number of instructions fetched each cycle (Total)
system.cpu.fetch.rateDist::3                   106783      4.73%     73.13% # Number of instructions fetched each cycle (Total)
system.cpu.fetch.rateDist::4                   177428      7.86%     80.99% # Number of instructions fetched each cycle (Total)
system.cpu.fetch.rateDist::5                    38441      1.70%     82.69% # Number of instructions fetched each cycle (Total)
system.cpu.fetch.rateDist::6                   103971      4.60%     87.30% # Number of instructions fetched each cycle (Total)
system.cpu.fetch.rateDist::7                     4527      0.20%     87.50% # Number of instructions fetched each cycle (Total)
system.cpu.fetch.rateDist::8                   282335     12.50%    100.00% # Number of instructions fetched each cycle (Total)
system.cpu.fetch.rateDist::overflows                0      0.00%    100.00% # Number of instructions fetched each cycle (Total)
system.cpu.fetch.rateDist::min_value                0                       # Number of instructions fetched each cycle (Total)
system.cpu.fetch.rateDist::max_value                8                       # Number of instructions fetched each cycle (Total)
system.cpu.fetch.rateDist::total              2258232                       # Number of instructions fetched each cycle (Total)
system.cpu.icache.prefetcher.num_hwpf_issued        69409                       # number of hwpf issued
system.cpu.icache.prefetcher.pfBufferHit       463022                       # number of redundant prefetches already in prefetch queue
system.cpu.icache.prefetcher.pfIdentified       589375                       # number of prefetch candidates identified
system.cpu.icache.prefetcher.pfInCache              0                       # number of redundant prefetches already in cache/mshr dropped
system.cpu.icache.prefetcher.pfRemovedFull        43087                       # number of prefetches dropped due to prefetch queue size
system.cpu.icache.prefetcher.pfSpanPage       6274043                       # number of prefetches that crossed the page
system.cpu.idleCycles                          154986                       # Total number of cycles that the CPU has spent unscheduled due to idling
system.cpu.iew.branchMispredicts                 4127                       # Number of branch mispredicts detected at execute
system.cpu.iew.exec_branches                   500768                       # Number of branches executed
system.cpu.iew.exec_nop                           709                       # number of nop insts executed
system.cpu.iew.exec_rate                     1.881487                       # Inst execution rate
system.cpu.iew.exec_refs                       734903                       # number of memory reference insts executed
system.cpu.iew.exec_stores                     224433                       # Number of stores executed
system.cpu.iew.exec_swp                             0                       # number of swp insts executed
system.cpu.iew.iewBlockCycles                   18914                       # Number of cycles IEW is blocking
system.cpu.iew.iewDispLoadInsts                510423                       # Number of dispatched load instructions
system.cpu.iew.iewDispNonSpecInsts                382                       # Number of dispatched non-speculative instructions
system.cpu.iew.iewDispSquashedInsts              1318                       # Number of squashed instructions skipped by dispatch
system.cpu.iew.iewDispStoreInsts               227206                       # Number of dispatched store instructions
system.cpu.iew.iewDispatchedInsts             4558780                       # Number of instructions dispatched to IQ
system.cpu.iew.iewExecLoadInsts                510470                       # Number of load instructions executed
system.cpu.iew.iewExecSquashedInsts              4607                       # Number of squashed instructions skipped in execute
system.cpu.iew.iewExecutedInsts               4540438                       # Number of executed instructions
system.cpu.iew.iewIQFullEvents                    139                       # Number of times the IQ has become full, causing a stall
system.cpu.iew.iewIdleCycles                        0                       # Number of cycles IEW is idle
system.cpu.iew.iewLSQFullEvents                  2758                       # Number of times the LSQ has become full, causing a stall
system.cpu.iew.iewSquashCycles                   4034                       # Number of cycles IEW is squashing
system.cpu.iew.iewUnblockCycles                  2979                       # Number of cycles IEW is unblocking
system.cpu.iew.lsq.thread0.blockedLoads             0                       # Number of blocked loads due to partial load-store forwarding
system.cpu.iew.lsq.thread0.cacheBlocked         14082                       # Number of times an access to memory failed due to the cache being blocked
system.cpu.iew.lsq.thread0.forwLoads             1558                       # Number of loads that had data forwarded from stores
system.cpu.iew.lsq.thread0.ignoredResponses           21                       # Number of memory responses ignored because the instruction is squashed
system.cpu.iew.lsq.thread0.invAddrLoads             0                       # Number of loads ignored due to an invalid address
system.cpu.iew.lsq.thread0.invAddrSwpfs             0                       # Number of software prefetches ignored due to an invalid address
system.cpu.iew.lsq.thread0.memOrderViolation           79                       # Number of memory ordering violations
system.cpu.iew.lsq.thread0.rescheduledLoads         1232                       # Number of loads that were rescheduled
system.cpu.iew.lsq.thread0.squashedLoads         9226                       # Number of loads squashed
system.cpu.iew.lsq.thread0.squashedStores        13861                       # Number of stores squashed
system.cpu.iew.memOrderViolationEvents             79                       # Number of memory order violations
system.cpu.iew.predictedNotTakenIncorrect         3090                       # Number of branches that were predicted not taken incorrectly
system.cpu.iew.predictedTakenIncorrect           1037                       # Number of branches that were predicted taken incorrectly
system.cpu.iew.wb_consumers                   5831536                       # num instructions consuming a value
system.cpu.iew.wb_count                       4527360                       # cumulative count of insts written-back
system.cpu.iew.wb_fanout                     0.606874                       # average fanout of values written-back
system.cpu.iew.wb_producers                   3539005                       # num instructions producing a value
system.cpu.iew.wb_rate                       1.876068                       # insts written-back per cycle
system.cpu.iew.wb_sent                        4535914                       # cumulative count of insts sent to commit
system.cpu.int_regfile_reads                  3268345                       # number of integer regfile reads
system.cpu.int_regfile_writes                 1891313                       # number of integer regfile writes
system.cpu.ipc                               1.752181                       # IPC: Instructions Per Cycle
system.cpu.ipc_total                         1.752181                       # IPC: Total IPC of All Threads
system.cpu.iq.FU_type_0::No_OpClass               181      0.00%      0.00% # Type of FU issued
system.cpu.iq.FU_type_0::IntAlu               2146277     47.22%     47.23% # Type of FU issued
system.cpu.iq.FU_type_0::IntMult                 3403      0.07%     47.30% # Type of FU issued
system.cpu.iq.FU_type_0::IntDiv                   511      0.01%     47.31% # Type of FU issued
system.cpu.iq.FU_type_0::FloatAdd              334084      7.35%     54.66% # Type of FU issued
system.cpu.iq.FU_type_0::FloatCmp                   5      0.00%     54.66% # Type of FU issued
system.cpu.iq.FU_type_0::FloatCvt               76971      1.69%     56.36% # Type of FU issued
system.cpu.iq.FU_type_0::FloatMult             257023      5.66%     62.01% # Type of FU issued
system.cpu.iq.FU_type_0::FloatMultAcc          811501     17.85%     79.87% # Type of FU issued
system.cpu.iq.FU_type_0::FloatDiv                   3      0.00%     79.87% # Type of FU issued
system.cpu.iq.FU_type_0::FloatMisc             176511      3.88%     83.75% # Type of FU issued
system.cpu.iq.FU_type_0::FloatSqrt                  0      0.00%     83.75% # Type of FU issued
system.cpu.iq.FU_type_0::SimdAdd                  432      0.01%     83.76% # Type of FU issued
system.cpu.iq.FU_type_0::SimdAddAcc                 0      0.00%     83.76% # Type of FU issued
system.cpu.iq.FU_type_0::SimdAlu                  552      0.01%     83.77% # Type of FU issued
system.cpu.iq.FU_type_0::SimdCmp                  499      0.01%     83.78% # Type of FU issued
system.cpu.iq.FU_type_0::SimdCvt                    0      0.00%     83.78% # Type of FU issued
system.cpu.iq.FU_type_0::SimdMisc                 518      0.01%     83.79% # Type of FU issued
system.cpu.iq.FU_type_0::SimdMult                   0      0.00%     83.79% # Type of FU issued
system.cpu.iq.FU_type_0::SimdMultAcc                0      0.00%     83.79% # Type of FU issued
system.cpu.iq.FU_type_0::SimdShift                  0      0.00%     83.79% # Type of FU issued
system.cpu.iq.FU_type_0::SimdShiftAcc               0      0.00%     83.79% # Type of FU issued
system.cpu.iq.FU_type_0::SimdDiv                    0      0.00%     83.79% # Type of FU issued
system.cpu.iq.FU_type_0::SimdSqrt                   0      0.00%     83.79% # Type of FU issued
system.cpu.iq.FU_type_0::SimdFloatAdd               0      0.00%     83.79% # Type of FU issued
system.cpu.iq.FU_type_0::SimdFloatAlu               0      0.00%     83.79% # Type of FU issued
system.cpu.iq.FU_type_0::SimdFloatCmp               0      0.00%     83.79% # Type of FU issued
system.cpu.iq.FU_type_0::SimdFloatCvt               0      0.00%     83.79% # Type of FU issued
system.cpu.iq.FU_type_0::SimdFloatDiv               0      0.00%     83.79% # Type of FU issued
system.cpu.iq.FU_type_0::SimdFloatMisc              0      0.00%     83.79% # Type of FU issued
system.cpu.iq.FU_type_0::SimdFloatMult              0      0.00%     83.79% # Type of FU issued
system.cpu.iq.FU_type_0::SimdFloatMultAcc            0      0.00%     83.79% # Type of FU issued
system.cpu.iq.FU_type_0::SimdFloatSqrt              0      0.00%     83.79% # Type of FU issued
system.cpu.iq.FU_type_0::SimdReduceAdd              0      0.00%     83.79% # Type of FU issued
system.cpu.iq.FU_type_0::SimdReduceAlu              0      0.00%     83.79% # Type of FU issued
system.cpu.iq.FU_type_0::SimdReduceCmp              0      0.00%     83.79% # Type of FU issued
system.cpu.iq.FU_type_0::SimdFloatReduceAdd            0      0.00%     83.79% # Type of FU issued
system.cpu.iq.FU_type_0::SimdFloatReduceCmp            0      0.00%     83.79% # Type of FU issued
system.cpu.iq.FU_type_0::SimdAes                    0      0.00%     83.79% # Type of FU issued
system.cpu.iq.FU_type_0::SimdAesMix                 0      0.00%     83.79% # Type of FU issued
system.cpu.iq.FU_type_0::SimdSha1Hash               0      0.00%     83.79% # Type of FU issued
system.cpu.iq.FU_type_0::SimdSha1Hash2              0      0.00%     83.79% # Type of FU issued
system.cpu.iq.FU_type_0::SimdSha256Hash             0      0.00%     83.79% # Type of FU issued
system.cpu.iq.FU_type_0::SimdSha256Hash2            0      0.00%     83.79% # Type of FU issued
system.cpu.iq.FU_type_0::SimdShaSigma2              0      0.00%     83.79% # Type of FU issued
system.cpu.iq.FU_type_0::SimdShaSigma3              0      0.00%     83.79% # Type of FU issued
system.cpu.iq.FU_type_0::SimdPredAlu                0      0.00%     83.79% # Type of FU issued
system.cpu.iq.FU_type_0::MemRead               511430     11.25%     95.05% # Type of FU issued
system.cpu.iq.FU_type_0::MemWrite              225144      4.95%    100.00% # Type of FU issued
system.cpu.iq.FU_type_0::FloatMemRead               0      0.00%    100.00% # Type of FU issued
system.cpu.iq.FU_type_0::FloatMemWrite              0      0.00%    100.00% # Type of FU issued
system.cpu.iq.FU_type_0::IprAccess                  0      0.00%    100.00% # Type of FU issued
system.cpu.iq.FU_type_0::InstPrefetch               0      0.00%    100.00% # Type of FU issued
system.cpu.iq.FU_type_0::total                4545045                       # Type of FU issued
system.cpu.iq.fp_alu_accesses                       0                       # Number of floating point alu accesses
system.cpu.iq.fp_inst_queue_reads                   0                       # Number of floating instruction queue reads
system.cpu.iq.fp_inst_queue_wakeup_accesses            0                       # Number of floating instruction queue wakeup accesses
system.cpu.iq.fp_inst_queue_writes                  0                       # Number of floating instruction queue writes
system.cpu.iq.fu_busy_cnt                      133434                       # FU busy when requested
system.cpu.iq.fu_busy_rate                   0.029358                       # FU busy rate (busy events/executed inst)
system.cpu.iq.fu_full::No_OpClass                   0      0.00%      0.00% # attempts to use FU when none available
system.cpu.iq.fu_full::IntAlu                    1479      1.11%      1.11% # attempts to use FU when none available
system.cpu.iq.fu_full::IntMult                    467      0.35%      1.46% # attempts to use FU when none available
system.cpu.iq.fu_full::IntDiv                       0      0.00%      1.46% # attempts to use FU when none available
system.cpu.iq.fu_full::FloatAdd                     0      0.00%      1.46% # attempts to use FU when none available
system.cpu.iq.fu_full::FloatCmp                     0      0.00%      1.46% # attempts to use FU when none available
system.cpu.iq.fu_full::FloatCvt                     0      0.00%      1.46% # attempts to use FU when none available
system.cpu.iq.fu_full::FloatMult                18656     13.98%     15.44% # attempts to use FU when none available
system.cpu.iq.fu_full::FloatMultAcc             81451     61.04%     76.48% # attempts to use FU when none available
system.cpu.iq.fu_full::FloatDiv                     0      0.00%     76.48% # attempts to use FU when none available
system.cpu.iq.fu_full::FloatMisc                26962     20.21%     96.69% # attempts to use FU when none available
system.cpu.iq.fu_full::FloatSqrt                    0      0.00%     96.69% # attempts to use FU when none available
system.cpu.iq.fu_full::SimdAdd                      0      0.00%     96.69% # attempts to use FU when none available
system.cpu.iq.fu_full::SimdAddAcc                   0      0.00%     96.69% # attempts to use FU when none available
system.cpu.iq.fu_full::SimdAlu                      2      0.00%     96.69% # attempts to use FU when none available
system.cpu.iq.fu_full::SimdCmp                      3      0.00%     96.69% # attempts to use FU when none available
system.cpu.iq.fu_full::SimdCvt                      0      0.00%     96.69% # attempts to use FU when none available
system.cpu.iq.fu_full::SimdMisc                     0      0.00%     96.69% # attempts to use FU when none available
system.cpu.iq.fu_full::SimdMult                     0      0.00%     96.69% # attempts to use FU when none available
system.cpu.iq.fu_full::SimdMultAcc                  0      0.00%     96.69% # attempts to use FU when none available
system.cpu.iq.fu_full::SimdShift                    0      0.00%     96.69% # attempts to use FU when none available
system.cpu.iq.fu_full::SimdShiftAcc                 0      0.00%     96.69% # attempts to use FU when none available
system.cpu.iq.fu_full::SimdDiv                      0      0.00%     96.69% # attempts to use FU when none available
system.cpu.iq.fu_full::SimdSqrt                     0      0.00%     96.69% # attempts to use FU when none available
system.cpu.iq.fu_full::SimdFloatAdd                 0      0.00%     96.69% # attempts to use FU when none available
system.cpu.iq.fu_full::SimdFloatAlu                 0      0.00%     96.69% # attempts to use FU when none available
system.cpu.iq.fu_full::SimdFloatCmp                 0      0.00%     96.69% # attempts to use FU when none available
system.cpu.iq.fu_full::SimdFloatCvt                 0      0.00%     96.69% # attempts to use FU when none available
system.cpu.iq.fu_full::SimdFloatDiv                 0      0.00%     96.69% # attempts to use FU when none available
system.cpu.iq.fu_full::SimdFloatMisc                0      0.00%     96.69% # attempts to use FU when none available
system.cpu.iq.fu_full::SimdFloatMult                0      0.00%     96.69% # attempts to use FU when none available
system.cpu.iq.fu_full::SimdFloatMultAcc             0      0.00%     96.69% # attempts to use FU when none available
system.cpu.iq.fu_full::SimdFloatSqrt                0      0.00%     96.69% # attempts to use FU when none available
system.cpu.iq.fu_full::SimdReduceAdd                0      0.00%     96.69% # attempts to use FU when none available
system.cpu.iq.fu_full::SimdReduceAlu                0      0.00%     96.69% # attempts to use FU when none available
system.cpu.iq.fu_full::SimdReduceCmp                0      0.00%     96.69% # attempts to use FU when none available
system.cpu.iq.fu_full::SimdFloatReduceAdd            0      0.00%     96.69% # attempts to use FU when none available
system.cpu.iq.fu_full::SimdFloatReduceCmp            0      0.00%     96.69% # attempts to use FU when none available
system.cpu.iq.fu_full::SimdAes                      0      0.00%     96.69% # attempts to use FU when none available
system.cpu.iq.fu_full::SimdAesMix                   0      0.00%     96.69% # attempts to use FU when none available
system.cpu.iq.fu_full::SimdSha1Hash                 0      0.00%     96.69% # attempts to use FU when none available
system.cpu.iq.fu_full::SimdSha1Hash2                0      0.00%     96.69% # attempts to use FU when none available
system.cpu.iq.fu_full::SimdSha256Hash               0      0.00%     96.69% # attempts to use FU when none available
system.cpu.iq.fu_full::SimdSha256Hash2              0      0.00%     96.69% # attempts to use FU when none available
system.cpu.iq.fu_full::SimdShaSigma2                0      0.00%     96.69% # attempts to use FU when none available
system.cpu.iq.fu_full::SimdShaSigma3                0      0.00%     96.69% # attempts to use FU when none available
system.cpu.iq.fu_full::SimdPredAlu                  0      0.00%     96.69% # attempts to use FU when none available
system.cpu.iq.fu_full::MemRead                   1319      0.99%     97.68% # attempts to use FU when none available
system.cpu.iq.fu_full::MemWrite                  3095      2.32%    100.00% # attempts to use FU when none available
system.cpu.iq.fu_full::FloatMemRead                 0      0.00%    100.00% # attempts to use FU when none available
system.cpu.iq.fu_full::FloatMemWrite                0      0.00%    100.00% # attempts to use FU when none available
system.cpu.iq.fu_full::IprAccess                    0      0.00%    100.00% # attempts to use FU when none available
system.cpu.iq.fu_full::InstPrefetch                 0      0.00%    100.00% # attempts to use FU when none available
system.cpu.iq.int_alu_accesses                2438472                       # Number of integer alu accesses
system.cpu.iq.int_inst_queue_reads            7129573                       # Number of integer instruction queue reads
system.cpu.iq.int_inst_queue_wakeup_accesses      2415159                       # Number of integer instruction queue wakeup accesses
system.cpu.iq.int_inst_queue_writes           2540063                       # Number of integer instruction queue writes
system.cpu.iq.iqInstsAdded                    4557689                       # Number of instructions added to the IQ (excludes non-spec)
system.cpu.iq.iqInstsIssued                   4545045                       # Number of instructions issued
system.cpu.iq.iqNonSpecInstsAdded                 382                       # Number of non-speculative instructions added to the IQ
system.cpu.iq.iqSquashedInstsExamined           96207                       # Number of squashed instructions iterated over during squash; mainly for profiling
system.cpu.iq.iqSquashedInstsIssued               439                       # Number of squashed instructions issued
system.cpu.iq.iqSquashedNonSpecRemoved             69                       # Number of squashed non-spec instructions that were removed
system.cpu.iq.iqSquashedOperandsExamined        57797                       # Number of squashed operands that are examined and possibly removed from graph
system.cpu.iq.issued_per_cycle::samples       2258232                       # Number of insts issued each cycle
system.cpu.iq.issued_per_cycle::mean         2.012656                       # Number of insts issued each cycle
system.cpu.iq.issued_per_cycle::stdev        2.066555                       # Number of insts issued each cycle
system.cpu.iq.issued_per_cycle::underflows            0      0.00%      0.00% # Number of insts issued each cycle
system.cpu.iq.issued_per_cycle::0              739853     32.76%     32.76% # Number of insts issued each cycle
system.cpu.iq.issued_per_cycle::1              324733     14.38%     47.14% # Number of insts issued each cycle
system.cpu.iq.issued_per_cycle::2              451770     20.01%     67.15% # Number of insts issued each cycle
system.cpu.iq.issued_per_cycle::3              274577     12.16%     79.31% # Number of insts issued each cycle
system.cpu.iq.issued_per_cycle::4              165763      7.34%     86.65% # Number of insts issued each cycle
system.cpu.iq.issued_per_cycle::5              153802      6.81%     93.46% # Number of insts issued each cycle
system.cpu.iq.issued_per_cycle::6               24942      1.10%     94.56% # Number of insts issued each cycle
system.cpu.iq.issued_per_cycle::7               71009      3.14%     97.71% # Number of insts issued each cycle
system.cpu.iq.issued_per_cycle::8               51783      2.29%    100.00% # Number of insts issued each cycle
system.cpu.iq.issued_per_cycle::overflows            0      0.00%    100.00% # Number of insts issued each cycle
system.cpu.iq.issued_per_cycle::min_value            0                       # Number of insts issued each cycle
system.cpu.iq.issued_per_cycle::max_value            8                       # Number of insts issued each cycle
system.cpu.iq.issued_per_cycle::total         2258232                       # Number of insts issued each cycle
system.cpu.iq.rate                           1.883396                       # Inst issue rate
system.cpu.iq.vec_alu_accesses                2239826                       # Number of vector alu accesses
system.cpu.iq.vec_inst_queue_reads            4352622                       # Number of vector instruction queue reads
system.cpu.iq.vec_inst_queue_wakeup_accesses      2112201                       # Number of vector instruction queue wakeup accesses
system.cpu.iq.vec_inst_queue_writes           2114290                       # Number of vector instruction queue writes
system.cpu.itb.accesses                             0                       # DTB accesses
system.cpu.itb.align_faults                         0                       # Number of TLB faults due to alignment restrictions
system.cpu.itb.domain_faults                        0                       # Number of TLB faults due to domain restrictions
system.cpu.itb.flush_entries                        0                       # Number of entries that have been flushed from TLB
system.cpu.itb.flush_tlb                            0                       # Number of times complete TLB was flushed
system.cpu.itb.flush_tlb_asid                       0                       # Number of times TLB was flushed by ASID
system.cpu.itb.flush_tlb_mva                        0                       # Number of times TLB was flushed by MVA
system.cpu.itb.flush_tlb_mva_asid                   0                       # Number of times TLB was flushed by MVA & ASID
system.cpu.itb.hits                                 0                       # DTB hits
system.cpu.itb.inst_accesses                        0                       # ITB inst accesses
system.cpu.itb.inst_hits                            0                       # ITB inst hits
system.cpu.itb.inst_misses                          0                       # ITB inst misses
system.cpu.itb.misses                               0                       # DTB misses
system.cpu.itb.perms_faults                         0                       # Number of TLB faults due to permissions restrictions
system.cpu.itb.prefetch_faults                      0                       # Number of TLB faults due to prefetch
system.cpu.itb.read_accesses                        0                       # DTB read accesses
system.cpu.itb.read_hits                            0                       # DTB read hits
system.cpu.itb.read_misses                          0                       # DTB read misses
system.cpu.itb.stage2_mmu.stage2_tlb.accesses            0                       # DTB accesses
system.cpu.itb.stage2_mmu.stage2_tlb.align_faults            0                       # Number of TLB faults due to alignment restrictions
system.cpu.itb.stage2_mmu.stage2_tlb.domain_faults            0                       # Number of TLB faults due to domain restrictions
system.cpu.itb.stage2_mmu.stage2_tlb.flush_entries            0                       # Number of entries that have been flushed from TLB
system.cpu.itb.stage2_mmu.stage2_tlb.flush_tlb            0                       # Number of times complete TLB was flushed
system.cpu.itb.stage2_mmu.stage2_tlb.flush_tlb_asid            0                       # Number of times TLB was flushed by ASID
system.cpu.itb.stage2_mmu.stage2_tlb.flush_tlb_mva            0                       # Number of times TLB was flushed by MVA
system.cpu.itb.stage2_mmu.stage2_tlb.flush_tlb_mva_asid            0                       # Number of times TLB was flushed by MVA & ASID
system.cpu.itb.stage2_mmu.stage2_tlb.hits            0                       # DTB hits
system.cpu.itb.stage2_mmu.stage2_tlb.inst_accesses            0                       # ITB inst accesses
system.cpu.itb.stage2_mmu.stage2_tlb.inst_hits            0                       # ITB inst hits
system.cpu.itb.stage2_mmu.stage2_tlb.inst_misses            0                       # ITB inst misses
system.cpu.itb.stage2_mmu.stage2_tlb.misses            0                       # DTB misses
system.cpu.itb.stage2_mmu.stage2_tlb.perms_faults            0                       # Number of TLB faults due to permissions restrictions
system.cpu.itb.stage2_mmu.stage2_tlb.prefetch_faults            0                       # Number of TLB faults due to prefetch
system.cpu.itb.stage2_mmu.stage2_tlb.read_accesses            0                       # DTB read accesses
system.cpu.itb.stage2_mmu.stage2_tlb.read_hits            0                       # DTB read hits
system.cpu.itb.stage2_mmu.stage2_tlb.read_misses            0                       # DTB read misses
system.cpu.itb.stage2_mmu.stage2_tlb.walker.walkRequestOrigin_Requested::Data            0                       # Table walker requests started/completed, data/inst
system.cpu.itb.stage2_mmu.stage2_tlb.walker.walkRequestOrigin_Requested::Inst            0                       # Table walker requests started/completed, data/inst
system.cpu.itb.stage2_mmu.stage2_tlb.walker.walkRequestOrigin_Requested::total            0                       # Table walker requests started/completed, data/inst
system.cpu.itb.stage2_mmu.stage2_tlb.walker.walkRequestOrigin_Completed::Data            0                       # Table walker requests started/completed, data/inst
system.cpu.itb.stage2_mmu.stage2_tlb.walker.walkRequestOrigin_Completed::Inst            0                       # Table walker requests started/completed, data/inst
system.cpu.itb.stage2_mmu.stage2_tlb.walker.walkRequestOrigin_Completed::total            0                       # Table walker requests started/completed, data/inst
system.cpu.itb.stage2_mmu.stage2_tlb.walker.walkRequestOrigin::total            0                       # Table walker requests started/completed, data/inst
system.cpu.itb.stage2_mmu.stage2_tlb.walker.walks            0                       # Table walker walks requested
system.cpu.itb.stage2_mmu.stage2_tlb.write_accesses            0                       # DTB write accesses
system.cpu.itb.stage2_mmu.stage2_tlb.write_hits            0                       # DTB write hits
system.cpu.itb.stage2_mmu.stage2_tlb.write_misses            0                       # DTB write misses
system.cpu.itb.walker.walkRequestOrigin_Requested::Data            0                       # Table walker requests started/completed, data/inst
system.cpu.itb.walker.walkRequestOrigin_Requested::Inst            0                       # Table walker requests started/completed, data/inst
system.cpu.itb.walker.walkRequestOrigin_Requested::total            0                       # Table walker requests started/completed, data/inst
system.cpu.itb.walker.walkRequestOrigin_Completed::Data            0                       # Table walker requests started/completed, data/inst
system.cpu.itb.walker.walkRequestOrigin_Completed::Inst            0                       # Table walker requests started/completed, data/inst
system.cpu.itb.walker.walkRequestOrigin_Completed::total            0                       # Table walker requests started/completed, data/inst
system.cpu.itb.walker.walkRequestOrigin::total            0                       # Table walker requests started/completed, data/inst
system.cpu.itb.walker.walks                         0                       # Table walker walks requested
system.cpu.itb.write_accesses                       0                       # DTB write accesses
system.cpu.itb.write_hits                           0                       # DTB write hits
system.cpu.itb.write_misses                         0                       # DTB write misses
system.cpu.memDep0.conflictingLoads               977                       # Number of conflicting loads.
system.cpu.memDep0.conflictingStores             1165                       # Number of conflicting stores.
system.cpu.memDep0.insertedLoads               510423                       # Number of loads inserted to the mem dependence unit.
system.cpu.memDep0.insertedStores              227206                       # Number of stores inserted to the mem dependence unit.
system.cpu.misc_regfile_reads                 7977216                       # number of misc regfile reads
system.cpu.misc_regfile_writes                1480611                       # number of misc regfile writes
system.cpu.numCycles                          2413218                       # number of cpu cycles simulated
system.cpu.numWorkItemsCompleted                    0                       # number of work items this cpu completed
system.cpu.numWorkItemsStarted                      0                       # number of work items this cpu started
system.cpu.rename.BlockCycles                   25045                       # Number of cycles rename is blocking
system.cpu.rename.CommittedMaps               6322780                       # Number of HB maps that are committed
system.cpu.rename.IQFullEvents                   2097                       # Number of times rename has blocked due to IQ full
system.cpu.rename.IdleCycles                   943827                       # Number of cycles rename is idle
system.cpu.rename.LQFullEvents                    144                       # Number of times rename has blocked due to LQ full
system.cpu.rename.ROBFullEvents                   752                       # Number of times rename has blocked due to ROB full
system.cpu.rename.RenameLookups              13658319                       # Number of register rename lookups that rename has made
system.cpu.rename.RenamedInsts                4569840                       # Number of instructions processed by rename
system.cpu.rename.RenamedOperands             6440838                       # Number of destination operands rename has renamed
system.cpu.rename.RunCycles                    966411                       # Number of cycles rename is running
system.cpu.rename.SQFullEvents                 293753                       # Number of times rename has blocked due to SQ full
system.cpu.rename.SquashCycles                   4034                       # Number of cycles rename is squashing
system.cpu.rename.UnblockCycles                298380                       # Number of cycles rename is unblocking
system.cpu.rename.UndoneMaps                   118058                       # Number of HB maps that are undone due to squashing
system.cpu.rename.int_rename_lookups          3303432                       # Number of integer rename lookups
system.cpu.rename.serializeStallCycles          20535                       # count of cycles rename stalled for serializing inst
system.cpu.rename.serializingInsts               1071                       # count of serializing insts renamed
system.cpu.rename.skidInsts                     77645                       # count of insts added to the skid buffer
system.cpu.rename.tempSerializingInsts            381                       # count of temporary serializing insts renamed
system.cpu.rename.vec_rename_lookups          3741238                       # Number of vector rename lookups
system.cpu.rob.rob_reads                      6429395                       # The number of ROB reads
system.cpu.rob.rob_writes                     9120489                       # The number of ROB writes
system.cpu.timesIdled                           11985                       # Number of times that the entire CPU went into an idle state and unscheduled itself
system.cpu.vec_regfile_reads                  3739934                       # number of vector regfile reads
system.cpu.vec_regfile_writes                 2150438                       # number of vector regfile writes
system.cpu.workload.numSyscalls                    34                       # Number of system calls
system.membus.snoop_filter.hit_multi_requests            0                       # Number of requests hitting in the snoop filter with multiple (>1) holders of the requested data.
system.membus.snoop_filter.hit_multi_snoops            0                       # Number of snoops hitting in the snoop filter with multiple (>1) holders of the requested data.
system.membus.snoop_filter.hit_single_requests            0                       # Number of requests hitting in the snoop filter with a single holder of the requested data.
system.membus.snoop_filter.hit_single_snoops            0                       # Number of snoops hitting in the snoop filter with a single holder of the requested data.
system.membus.snoop_filter.tot_requests         19849                       # Total number of requests made to the snoop filter.
system.membus.snoop_filter.tot_snoops               0                       # Total number of snoops made to the snoop filter.
system.tol2bus.snoop_filter.hit_multi_requests           85                       # Number of requests hitting in the snoop filter with multiple (>1) holders of the requested data.
system.tol2bus.snoop_filter.hit_multi_snoops            0                       # Number of snoops hitting in the snoop filter with multiple (>1) holders of the requested data.
system.tol2bus.snoop_filter.hit_single_requests        63921                       # Number of requests hitting in the snoop filter with a single holder of the requested data.
system.tol2bus.snoop_filter.hit_single_snoops            0                       # Number of snoops hitting in the snoop filter with a single holder of the requested data.
system.tol2bus.snoop_filter.tot_requests       128931                       # Total number of requests made to the snoop filter.
system.tol2bus.snoop_filter.tot_snoops              0                       # Total number of snoops made to the snoop filter.
system.membus.trans_dist::ReadResp               1708                       # Transaction distribution
system.membus.trans_dist::ReadExReq             16958                       # Transaction distribution
system.membus.trans_dist::ReadExResp            16958                       # Transaction distribution
system.membus.trans_dist::ReadSharedReq          1708                       # Transaction distribution
system.membus.trans_dist::InvalidateReq          1183                       # Transaction distribution
system.membus.pkt_count_system.l2.mem_side::system.mem_ctrls.port        38515                       # Packet count per connected master and slave (bytes)
system.membus.pkt_count::total                  38515                       # Packet count per connected master and slave (bytes)
system.membus.pkt_size_system.l2.mem_side::system.mem_ctrls.port      1194624                       # Cumulative packet size per connected master and slave (bytes)
system.membus.pkt_size::total                 1194624                       # Cumulative packet size per connected master and slave (bytes)
system.membus.snoops                                0                       # Total snoops (count)
system.membus.snoopTraffic                          0                       # Total snoop traffic (bytes)
system.membus.snoop_fanout::samples             19849                       # Request fanout histogram
system.membus.snoop_fanout::mean                    0                       # Request fanout histogram
system.membus.snoop_fanout::stdev                   0                       # Request fanout histogram
system.membus.snoop_fanout::underflows              0      0.00%      0.00% # Request fanout histogram
system.membus.snoop_fanout::0                   19849    100.00%    100.00% # Request fanout histogram
system.membus.snoop_fanout::1                       0      0.00%    100.00% # Request fanout histogram
system.membus.snoop_fanout::overflows               0      0.00%    100.00% # Request fanout histogram
system.membus.snoop_fanout::min_value               0                       # Request fanout histogram
system.membus.snoop_fanout::max_value               0                       # Request fanout histogram
system.membus.snoop_fanout::total               19849                       # Request fanout histogram
system.membus.reqLayer0.occupancy            28455000                       # Layer occupancy (ticks)
system.membus.reqLayer0.utilization               2.4                       # Layer utilization (%)
system.membus.respLayer1.occupancy           97805500                       # Layer occupancy (ticks)
system.membus.respLayer1.utilization              8.1                       # Layer utilization (%)
system.membus.power_state.pwrStateResidencyTicks::UNDEFINED   1206607500                       # Cumulative time (in ticks) in various power states
system.tol2bus.trans_dist::ReadResp             46735                       # Transaction distribution
system.tol2bus.trans_dist::WritebackDirty        17449                       # Transaction distribution
system.tol2bus.trans_dist::WritebackClean        46076                       # Transaction distribution
system.tol2bus.trans_dist::CleanEvict             396                       # Transaction distribution
system.tol2bus.trans_dist::ReadExReq            17090                       # Transaction distribution
system.tol2bus.trans_dist::ReadExResp           17090                       # Transaction distribution
system.tol2bus.trans_dist::ReadCleanReq         46141                       # Transaction distribution
system.tol2bus.trans_dist::ReadSharedReq          595                       # Transaction distribution
system.tol2bus.trans_dist::InvalidateReq         1184                       # Transaction distribution
system.tol2bus.trans_dist::InvalidateResp         1184                       # Transaction distribution
system.tol2bus.pkt_count_system.cpu.icache.mem_side::system.l2.cpu_side       138357                       # Packet count per connected master and slave (bytes)
system.tol2bus.pkt_count_system.cpu.dcache.mem_side::system.l2.cpu_side        55583                       # Packet count per connected master and slave (bytes)
system.tol2bus.pkt_count::total                193940                       # Packet count per connected master and slave (bytes)
system.tol2bus.pkt_size_system.cpu.icache.mem_side::system.l2.cpu_side      5901824                       # Cumulative packet size per connected master and slave (bytes)
system.tol2bus.pkt_size_system.cpu.dcache.mem_side::system.l2.cpu_side      2248576                       # Cumulative packet size per connected master and slave (bytes)
system.tol2bus.pkt_size::total                8150400                       # Cumulative packet size per connected master and slave (bytes)
system.tol2bus.snoops                               0                       # Total snoops (count)
system.tol2bus.snoopTraffic                         0                       # Total snoop traffic (bytes)
system.tol2bus.snoop_fanout::samples            65010                       # Request fanout histogram
system.tol2bus.snoop_fanout::mean            0.001307                       # Request fanout histogram
system.tol2bus.snoop_fanout::stdev           0.036136                       # Request fanout histogram
system.tol2bus.snoop_fanout::underflows             0      0.00%      0.00% # Request fanout histogram
system.tol2bus.snoop_fanout::0                  64925     99.87%     99.87% # Request fanout histogram
system.tol2bus.snoop_fanout::1                     85      0.13%    100.00% # Request fanout histogram
system.tol2bus.snoop_fanout::2                      0      0.00%    100.00% # Request fanout histogram
system.tol2bus.snoop_fanout::overflows              0      0.00%    100.00% # Request fanout histogram
system.tol2bus.snoop_fanout::min_value              0                       # Request fanout histogram
system.tol2bus.snoop_fanout::max_value              1                       # Request fanout histogram
system.tol2bus.snoop_fanout::total              65010                       # Request fanout histogram
system.tol2bus.reqLayer0.occupancy          134910619                       # Layer occupancy (ticks)
system.tol2bus.reqLayer0.utilization             11.2                       # Layer utilization (%)
system.tol2bus.respLayer1.occupancy          27136466                       # Layer occupancy (ticks)
system.tol2bus.respLayer1.utilization             2.2                       # Layer utilization (%)
system.tol2bus.respLayer0.occupancy          69210499                       # Layer occupancy (ticks)
system.tol2bus.respLayer0.utilization             5.7                       # Layer utilization (%)
system.tol2bus.power_state.pwrStateResidencyTicks::UNDEFINED   1206607500                       # Cumulative time (in ticks) in various power states
system.voltage_domain.voltage                       1                       # Voltage in Volts
system.clk_domain.clock                          1000                       # Clock period in ticks
system.l2.demand_hits::.cpu.inst                14308                       # number of demand (read+write) hits
system.l2.demand_hits::.cpu.data                  368                       # number of demand (read+write) hits
system.l2.demand_hits::.cpu.icache.prefetcher        30483                       # number of demand (read+write) hits
system.l2.demand_hits::total                    45159                       # number of demand (read+write) hits
system.l2.overall_hits::.cpu.inst               14308                       # number of overall hits
system.l2.overall_hits::.cpu.data                 368                       # number of overall hits
system.l2.overall_hits::.cpu.icache.prefetcher        30483                       # number of overall hits
system.l2.overall_hits::total                   45159                       # number of overall hits
system.l2.demand_misses::.cpu.inst               1350                       # number of demand (read+write) misses
system.l2.demand_misses::.cpu.data              17317                       # number of demand (read+write) misses
system.l2.demand_misses::total                  18667                       # number of demand (read+write) misses
system.l2.overall_misses::.cpu.inst              1350                       # number of overall misses
system.l2.overall_misses::.cpu.data             17317                       # number of overall misses
system.l2.overall_misses::total                 18667                       # number of overall misses
system.l2.demand_miss_latency::.cpu.inst    105021500                       # number of demand (read+write) miss cycles
system.l2.demand_miss_latency::.cpu.data   1286240000                       # number of demand (read+write) miss cycles
system.l2.demand_miss_latency::total       1391261500                       # number of demand (read+write) miss cycles
system.l2.overall_miss_latency::.cpu.inst    105021500                       # number of overall miss cycles
system.l2.overall_miss_latency::.cpu.data   1286240000                       # number of overall miss cycles
system.l2.overall_miss_latency::total      1391261500                       # number of overall miss cycles
system.l2.demand_accesses::.cpu.inst            15658                       # number of demand (read+write) accesses
system.l2.demand_accesses::.cpu.data            17685                       # number of demand (read+write) accesses
system.l2.demand_accesses::.cpu.icache.prefetcher        30483                       # number of demand (read+write) accesses
system.l2.demand_accesses::total                63826                       # number of demand (read+write) accesses
system.l2.overall_accesses::.cpu.inst           15658                       # number of overall (read+write) accesses
system.l2.overall_accesses::.cpu.data           17685                       # number of overall (read+write) accesses
system.l2.overall_accesses::.cpu.icache.prefetcher        30483                       # number of overall (read+write) accesses
system.l2.overall_accesses::total               63826                       # number of overall (read+write) accesses
system.l2.demand_miss_rate::.cpu.inst        0.086218                       # miss rate for demand accesses
system.l2.demand_miss_rate::.cpu.data        0.979191                       # miss rate for demand accesses
system.l2.demand_miss_rate::total            0.292467                       # miss rate for demand accesses
system.l2.overall_miss_rate::.cpu.inst       0.086218                       # miss rate for overall accesses
system.l2.overall_miss_rate::.cpu.data       0.979191                       # miss rate for overall accesses
system.l2.overall_miss_rate::total           0.292467                       # miss rate for overall accesses
system.l2.demand_avg_miss_latency::.cpu.inst 77793.703704                       # average overall miss latency
system.l2.demand_avg_miss_latency::.cpu.data 74276.144829                       # average overall miss latency
system.l2.demand_avg_miss_latency::total 74530.535169                       # average overall miss latency
system.l2.overall_avg_miss_latency::.cpu.inst 77793.703704                       # average overall miss latency
system.l2.overall_avg_miss_latency::.cpu.data 74276.144829                       # average overall miss latency
system.l2.overall_avg_miss_latency::total 74530.535169                       # average overall miss latency
system.l2.blocked_cycles::no_mshrs                  0                       # number of cycles access was blocked
system.l2.blocked_cycles::no_targets                0                       # number of cycles access was blocked
system.l2.blocked::no_mshrs                         0                       # number of cycles access was blocked
system.l2.blocked::no_targets                       0                       # number of cycles access was blocked
system.l2.avg_blocked_cycles::no_mshrs            nan                       # average number of cycles each access was blocked
system.l2.avg_blocked_cycles::no_targets          nan                       # average number of cycles each access was blocked
system.l2.demand_mshr_misses::.cpu.inst          1350                       # number of demand (read+write) MSHR misses
system.l2.demand_mshr_misses::.cpu.data         17317                       # number of demand (read+write) MSHR misses
system.l2.demand_mshr_misses::total             18667                       # number of demand (read+write) MSHR misses
system.l2.overall_mshr_misses::.cpu.inst         1350                       # number of overall MSHR misses
system.l2.overall_mshr_misses::.cpu.data        17317                       # number of overall MSHR misses
system.l2.overall_mshr_misses::total            18667                       # number of overall MSHR misses
system.l2.demand_mshr_miss_latency::.cpu.inst     91531500                       # number of demand (read+write) MSHR miss cycles
system.l2.demand_mshr_miss_latency::.cpu.data   1113070000                       # number of demand (read+write) MSHR miss cycles
system.l2.demand_mshr_miss_latency::total   1204601500                       # number of demand (read+write) MSHR miss cycles
system.l2.overall_mshr_miss_latency::.cpu.inst     91531500                       # number of overall MSHR miss cycles
system.l2.overall_mshr_miss_latency::.cpu.data   1113070000                       # number of overall MSHR miss cycles
system.l2.overall_mshr_miss_latency::total   1204601500                       # number of overall MSHR miss cycles
system.l2.demand_mshr_miss_rate::.cpu.inst     0.086218                       # mshr miss rate for demand accesses
system.l2.demand_mshr_miss_rate::.cpu.data     0.979191                       # mshr miss rate for demand accesses
system.l2.demand_mshr_miss_rate::total       0.292467                       # mshr miss rate for demand accesses
system.l2.overall_mshr_miss_rate::.cpu.inst     0.086218                       # mshr miss rate for overall accesses
system.l2.overall_mshr_miss_rate::.cpu.data     0.979191                       # mshr miss rate for overall accesses
system.l2.overall_mshr_miss_rate::total      0.292467                       # mshr miss rate for overall accesses
system.l2.demand_avg_mshr_miss_latency::.cpu.inst 67801.111111                       # average overall mshr miss latency
system.l2.demand_avg_mshr_miss_latency::.cpu.data 64276.144829                       # average overall mshr miss latency
system.l2.demand_avg_mshr_miss_latency::total 64531.070874                       # average overall mshr miss latency
system.l2.overall_avg_mshr_miss_latency::.cpu.inst 67801.111111                       # average overall mshr miss latency
system.l2.overall_avg_mshr_miss_latency::.cpu.data 64276.144829                       # average overall mshr miss latency
system.l2.overall_avg_mshr_miss_latency::total 64531.070874                       # average overall mshr miss latency
system.l2.replacements                              0                       # number of replacements
system.l2.WritebackDirty_hits::.writebacks        17449                       # number of WritebackDirty hits
system.l2.WritebackDirty_hits::total            17449                       # number of WritebackDirty hits
system.l2.WritebackDirty_accesses::.writebacks        17449                       # number of WritebackDirty accesses(hits+misses)
system.l2.WritebackDirty_accesses::total        17449                       # number of WritebackDirty accesses(hits+misses)
system.l2.WritebackClean_hits::.writebacks        45991                       # number of WritebackClean hits
system.l2.WritebackClean_hits::total            45991                       # number of WritebackClean hits
system.l2.WritebackClean_accesses::.writebacks        45991                       # number of WritebackClean accesses(hits+misses)
system.l2.WritebackClean_accesses::total        45991                       # number of WritebackClean accesses(hits+misses)
system.l2.ReadExReq_hits::.cpu.data               132                       # number of ReadExReq hits
system.l2.ReadExReq_hits::total                   132                       # number of ReadExReq hits
system.l2.ReadExReq_misses::.cpu.data           16958                       # number of ReadExReq misses
system.l2.ReadExReq_misses::total               16958                       # number of ReadExReq misses
system.l2.ReadExReq_miss_latency::.cpu.data   1257175000                       # number of ReadExReq miss cycles
system.l2.ReadExReq_miss_latency::total    1257175000                       # number of ReadExReq miss cycles
system.l2.ReadExReq_accesses::.cpu.data         17090                       # number of ReadExReq accesses(hits+misses)
system.l2.ReadExReq_accesses::total             17090                       # number of ReadExReq accesses(hits+misses)
system.l2.ReadExReq_miss_rate::.cpu.data     0.992276                       # miss rate for ReadExReq accesses
system.l2.ReadExReq_miss_rate::total         0.992276                       # miss rate for ReadExReq accesses
system.l2.ReadExReq_avg_miss_latency::.cpu.data 74134.626725                       # average ReadExReq miss latency
system.l2.ReadExReq_avg_miss_latency::total 74134.626725                       # average ReadExReq miss latency
system.l2.ReadExReq_mshr_misses::.cpu.data        16958                       # number of ReadExReq MSHR misses
system.l2.ReadExReq_mshr_misses::total          16958                       # number of ReadExReq MSHR misses
system.l2.ReadExReq_mshr_miss_latency::.cpu.data   1087595000                       # number of ReadExReq MSHR miss cycles
system.l2.ReadExReq_mshr_miss_latency::total   1087595000                       # number of ReadExReq MSHR miss cycles
system.l2.ReadExReq_mshr_miss_rate::.cpu.data     0.992276                       # mshr miss rate for ReadExReq accesses
system.l2.ReadExReq_mshr_miss_rate::total     0.992276                       # mshr miss rate for ReadExReq accesses
system.l2.ReadExReq_avg_mshr_miss_latency::.cpu.data 64134.626725                       # average ReadExReq mshr miss latency
system.l2.ReadExReq_avg_mshr_miss_latency::total 64134.626725                       # average ReadExReq mshr miss latency
system.l2.ReadCleanReq_hits::.cpu.inst          14308                       # number of ReadCleanReq hits
system.l2.ReadCleanReq_hits::.cpu.icache.prefetcher        30483                       # number of ReadCleanReq hits
system.l2.ReadCleanReq_hits::total              44791                       # number of ReadCleanReq hits
system.l2.ReadCleanReq_misses::.cpu.inst         1350                       # number of ReadCleanReq misses
system.l2.ReadCleanReq_misses::total             1350                       # number of ReadCleanReq misses
system.l2.ReadCleanReq_miss_latency::.cpu.inst    105021500                       # number of ReadCleanReq miss cycles
system.l2.ReadCleanReq_miss_latency::total    105021500                       # number of ReadCleanReq miss cycles
system.l2.ReadCleanReq_accesses::.cpu.inst        15658                       # number of ReadCleanReq accesses(hits+misses)
system.l2.ReadCleanReq_accesses::.cpu.icache.prefetcher        30483                       # number of ReadCleanReq accesses(hits+misses)
system.l2.ReadCleanReq_accesses::total          46141                       # number of ReadCleanReq accesses(hits+misses)
[...]
system.cpu.dcache.overall_miss_latency::total   8551609488                       # number of overall miss cycles
system.cpu.dcache.demand_accesses::.cpu.data       737005                       # number of demand (read+write) accesses
system.cpu.dcache.demand_accesses::total       737005                       # number of demand (read+write) accesses
system.cpu.dcache.overall_accesses::.cpu.data       737363                       # number of overall (read+write) accesses
system.cpu.dcache.overall_accesses::total       737363                       # number of overall (read+write) accesses
system.cpu.dcache.demand_miss_rate::.cpu.data     0.187388                       # miss rate for demand accesses
system.cpu.dcache.demand_miss_rate::total     0.187388                       # miss rate for demand accesses
system.cpu.dcache.overall_miss_rate::.cpu.data     0.187312                       # miss rate for overall accesses
system.cpu.dcache.overall_miss_rate::total     0.187312                       # miss rate for overall accesses
system.cpu.dcache.demand_avg_miss_latency::.cpu.data 61920.622478                       # average overall miss latency
system.cpu.dcache.demand_avg_miss_latency::total 61920.622478                       # average overall miss latency
system.cpu.dcache.overall_avg_miss_latency::.cpu.data 61915.690958                       # average overall miss latency
system.cpu.dcache.overall_avg_miss_latency::total 61915.690958                       # average overall miss latency
system.cpu.dcache.blocked_cycles::no_mshrs       564137                       # number of cycles access was blocked
system.cpu.dcache.blocked_cycles::no_targets            0                       # number of cycles access was blocked
system.cpu.dcache.blocked::no_mshrs             16092                       # number of cycles access was blocked
system.cpu.dcache.blocked::no_targets               0                       # number of cycles access was blocked
system.cpu.dcache.avg_blocked_cycles::no_mshrs    35.056985                       # average number of cycles each access was blocked
system.cpu.dcache.avg_blocked_cycles::no_targets          nan                       # average number of cycles each access was blocked
system.cpu.dcache.writebacks::.writebacks        17449                       # number of writebacks
system.cpu.dcache.writebacks::total             17449                       # number of writebacks
system.cpu.dcache.demand_mshr_hits::.cpu.data       119245                       # number of demand (read+write) MSHR hits
system.cpu.dcache.demand_mshr_hits::total       119245                       # number of demand (read+write) MSHR hits
system.cpu.dcache.overall_mshr_hits::.cpu.data       119245                       # number of overall MSHR hits
system.cpu.dcache.overall_mshr_hits::total       119245                       # number of overall MSHR hits
system.cpu.dcache.demand_mshr_misses::.cpu.data        18861                       # number of demand (read+write) MSHR misses
system.cpu.dcache.demand_mshr_misses::total        18861                       # number of demand (read+write) MSHR misses
system.cpu.dcache.overall_mshr_misses::.cpu.data        18866                       # number of overall MSHR misses
system.cpu.dcache.overall_mshr_misses::total        18866                       # number of overall MSHR misses
system.cpu.dcache.demand_mshr_miss_latency::.cpu.data   1361267079                       # number of demand (read+write) MSHR miss cycles
system.cpu.dcache.demand_mshr_miss_latency::total   1361267079                       # number of demand (read+write) MSHR miss cycles
system.cpu.dcache.overall_mshr_miss_latency::.cpu.data   1361548579                       # number of overall MSHR miss cycles
system.cpu.dcache.overall_mshr_miss_latency::total   1361548579                       # number of overall MSHR miss cycles
system.cpu.dcache.demand_mshr_miss_rate::.cpu.data     0.025591                       # mshr miss rate for demand accesses
system.cpu.dcache.demand_mshr_miss_rate::total     0.025591                       # mshr miss rate for demand accesses
system.cpu.dcache.overall_mshr_miss_rate::.cpu.data     0.025586                       # mshr miss rate for overall accesses
system.cpu.dcache.overall_mshr_miss_rate::total     0.025586                       # mshr miss rate for overall accesses
system.cpu.dcache.demand_avg_mshr_miss_latency::.cpu.data 72173.642914                       # average overall mshr miss latency
system.cpu.dcache.demand_avg_mshr_miss_latency::total 72173.642914                       # average overall mshr miss latency
system.cpu.dcache.overall_avg_mshr_miss_latency::.cpu.data 72169.435969                       # average overall mshr miss latency
system.cpu.dcache.overall_avg_mshr_miss_latency::total 72169.435969                       # average overall mshr miss latency
system.cpu.dcache.replacements                  17845                       # number of replacements
system.cpu.dcache.ReadReq_hits::.cpu.data       522152                       # number of ReadReq hits
system.cpu.dcache.ReadReq_hits::total          522152                       # number of ReadReq hits
system.cpu.dcache.ReadReq_misses::.cpu.data         1766                       # number of ReadReq misses
system.cpu.dcache.ReadReq_misses::total          1766                       # number of ReadReq misses
system.cpu.dcache.ReadReq_miss_latency::.cpu.data    108116000                       # number of ReadReq miss cycles
system.cpu.dcache.ReadReq_miss_latency::total    108116000                       # number of ReadReq miss cycles
system.cpu.dcache.ReadReq_accesses::.cpu.data       523918                       # number of ReadReq accesses(hits+misses)
system.cpu.dcache.ReadReq_accesses::total       523918                       # number of ReadReq accesses(hits+misses)
system.cpu.dcache.ReadReq_miss_rate::.cpu.data     0.003371                       # miss rate for ReadReq accesses
system.cpu.dcache.ReadReq_miss_rate::total     0.003371                       # miss rate for ReadReq accesses
system.cpu.dcache.ReadReq_avg_miss_latency::.cpu.data 61220.838052                       # average ReadReq miss latency
system.cpu.dcache.ReadReq_avg_miss_latency::total 61220.838052                       # average ReadReq miss latency
system.cpu.dcache.ReadReq_mshr_hits::.cpu.data         1179                       # number of ReadReq MSHR hits
system.cpu.dcache.ReadReq_mshr_hits::total         1179                       # number of ReadReq MSHR hits
system.cpu.dcache.ReadReq_mshr_misses::.cpu.data          587                       # number of ReadReq MSHR misses
system.cpu.dcache.ReadReq_mshr_misses::total          587                       # number of ReadReq MSHR misses
system.cpu.dcache.ReadReq_mshr_miss_latency::.cpu.data     32036000                       # number of ReadReq MSHR miss cycles
system.cpu.dcache.ReadReq_mshr_miss_latency::total     32036000                       # number of ReadReq MSHR miss cycles
system.cpu.dcache.ReadReq_mshr_miss_rate::.cpu.data     0.001120                       # mshr miss rate for ReadReq accesses
system.cpu.dcache.ReadReq_mshr_miss_rate::total     0.001120                       # mshr miss rate for ReadReq accesses
system.cpu.dcache.ReadReq_avg_mshr_miss_latency::.cpu.data 54575.809199                       # average ReadReq mshr miss latency
system.cpu.dcache.ReadReq_avg_mshr_miss_latency::total 54575.809199                       # average ReadReq mshr miss latency
system.cpu.dcache.WriteReq_hits::.cpu.data        76655                       # number of WriteReq hits
system.cpu.dcache.WriteReq_hits::total          76655                       # number of WriteReq hits
system.cpu.dcache.WriteReq_misses::.cpu.data       135171                       # number of WriteReq misses
system.cpu.dcache.WriteReq_misses::total       135171                       # number of WriteReq misses
system.cpu.dcache.WriteReq_miss_latency::.cpu.data   8405687900                       # number of WriteReq miss cycles
system.cpu.dcache.WriteReq_miss_latency::total   8405687900                       # number of WriteReq miss cycles
system.cpu.dcache.WriteReq_accesses::.cpu.data       211826                       # number of WriteReq accesses(hits+misses)
system.cpu.dcache.WriteReq_accesses::total       211826                       # number of WriteReq accesses(hits+misses)
system.cpu.dcache.WriteReq_miss_rate::.cpu.data     0.638123                       # miss rate for WriteReq accesses
system.cpu.dcache.WriteReq_miss_rate::total     0.638123                       # miss rate for WriteReq accesses
system.cpu.dcache.WriteReq_avg_miss_latency::.cpu.data 62185.586405                       # average WriteReq miss latency
system.cpu.dcache.WriteReq_avg_miss_latency::total 62185.586405                       # average WriteReq miss latency
system.cpu.dcache.WriteReq_mshr_hits::.cpu.data       118066                       # number of WriteReq MSHR hits
system.cpu.dcache.WriteReq_mshr_hits::total       118066                       # number of WriteReq MSHR hits
system.cpu.dcache.WriteReq_mshr_misses::.cpu.data        17105                       # number of WriteReq MSHR misses
system.cpu.dcache.WriteReq_mshr_misses::total        17105                       # number of WriteReq MSHR misses
system.cpu.dcache.WriteReq_mshr_miss_latency::.cpu.data   1292594491                       # number of WriteReq MSHR miss cycles
system.cpu.dcache.WriteReq_mshr_miss_latency::total   1292594491                       # number of WriteReq MSHR miss cycles
system.cpu.dcache.WriteReq_mshr_miss_rate::.cpu.data     0.080750                       # mshr miss rate for WriteReq accesses
system.cpu.dcache.WriteReq_mshr_miss_rate::total     0.080750                       # mshr miss rate for WriteReq accesses
system.cpu.dcache.WriteReq_avg_mshr_miss_latency::.cpu.data 75568.225139                       # average WriteReq mshr miss latency
system.cpu.dcache.WriteReq_avg_mshr_miss_latency::total 75568.225139                       # average WriteReq mshr miss latency
system.cpu.dcache.SoftPFReq_hits::.cpu.data          347                       # number of SoftPFReq hits
system.cpu.dcache.SoftPFReq_hits::total           347                       # number of SoftPFReq hits
system.cpu.dcache.SoftPFReq_misses::.cpu.data           11                       # number of SoftPFReq misses
system.cpu.dcache.SoftPFReq_misses::total           11                       # number of SoftPFReq misses
system.cpu.dcache.SoftPFReq_accesses::.cpu.data          358                       # number of SoftPFReq accesses(hits+misses)
system.cpu.dcache.SoftPFReq_accesses::total          358                       # number of SoftPFReq accesses(hits+misses)
system.cpu.dcache.SoftPFReq_miss_rate::.cpu.data     0.030726                       # miss rate for SoftPFReq accesses
system.cpu.dcache.SoftPFReq_miss_rate::total     0.030726                       # miss rate for SoftPFReq accesses
system.cpu.dcache.SoftPFReq_mshr_misses::.cpu.data            5                       # number of SoftPFReq MSHR misses
system.cpu.dcache.SoftPFReq_mshr_misses::total            5                       # number of SoftPFReq MSHR misses
system.cpu.dcache.SoftPFReq_mshr_miss_latency::.cpu.data       281500                       # number of SoftPFReq MSHR miss cycles
system.cpu.dcache.SoftPFReq_mshr_miss_latency::total       281500                       # number of SoftPFReq MSHR miss cycles
system.cpu.dcache.SoftPFReq_mshr_miss_rate::.cpu.data     0.013966                       # mshr miss rate for SoftPFReq accesses
system.cpu.dcache.SoftPFReq_mshr_miss_rate::total     0.013966                       # mshr miss rate for SoftPFReq accesses
system.cpu.dcache.SoftPFReq_avg_mshr_miss_latency::.cpu.data        56300                       # average SoftPFReq mshr miss latency
system.cpu.dcache.SoftPFReq_avg_mshr_miss_latency::total        56300                       # average SoftPFReq mshr miss latency
system.cpu.dcache.WriteLineReq_hits::.cpu.data           92                       # number of WriteLineReq hits
system.cpu.dcache.WriteLineReq_hits::total           92                       # number of WriteLineReq hits
system.cpu.dcache.WriteLineReq_misses::.cpu.data         1169                       # number of WriteLineReq misses
system.cpu.dcache.WriteLineReq_misses::total         1169                       # number of WriteLineReq misses
system.cpu.dcache.WriteLineReq_miss_latency::.cpu.data     37805588                       # number of WriteLineReq miss cycles
system.cpu.dcache.WriteLineReq_miss_latency::total     37805588                       # number of WriteLineReq miss cycles
system.cpu.dcache.WriteLineReq_accesses::.cpu.data         1261                       # number of WriteLineReq accesses(hits+misses)
system.cpu.dcache.WriteLineReq_accesses::total         1261                       # number of WriteLineReq accesses(hits+misses)
system.cpu.dcache.WriteLineReq_miss_rate::.cpu.data     0.927042                       # miss rate for WriteLineReq accesses
system.cpu.dcache.WriteLineReq_miss_rate::total     0.927042                       # miss rate for WriteLineReq accesses
system.cpu.dcache.WriteLineReq_avg_miss_latency::.cpu.data 32340.109495                       # average WriteLineReq miss latency
system.cpu.dcache.WriteLineReq_avg_miss_latency::total 32340.109495                       # average WriteLineReq miss latency
system.cpu.dcache.WriteLineReq_mshr_misses::.cpu.data         1169                       # number of WriteLineReq MSHR misses
system.cpu.dcache.WriteLineReq_mshr_misses::total         1169                       # number of WriteLineReq MSHR misses
system.cpu.dcache.WriteLineReq_mshr_miss_latency::.cpu.data     36636588                       # number of WriteLineReq MSHR miss cycles
system.cpu.dcache.WriteLineReq_mshr_miss_latency::total     36636588                       # number of WriteLineReq MSHR miss cycles
system.cpu.dcache.WriteLineReq_mshr_miss_rate::.cpu.data     0.927042                       # mshr miss rate for WriteLineReq accesses
system.cpu.dcache.WriteLineReq_mshr_miss_rate::total     0.927042                       # mshr miss rate for WriteLineReq accesses
system.cpu.dcache.WriteLineReq_avg_mshr_miss_latency::.cpu.data 31340.109495                       # average WriteLineReq mshr miss latency
system.cpu.dcache.WriteLineReq_avg_mshr_miss_latency::total 31340.109495                       # average WriteLineReq mshr miss latency
system.cpu.dcache.LoadLockedReq_hits::.cpu.data          305                       # number of LoadLockedReq hits
system.cpu.dcache.LoadLockedReq_hits::total          305                       # number of LoadLockedReq hits
system.cpu.dcache.LoadLockedReq_misses::.cpu.data            6                       # number of LoadLockedReq misses
system.cpu.dcache.LoadLockedReq_misses::total            6                       # number of LoadLockedReq misses
system.cpu.dcache.LoadLockedReq_miss_latency::.cpu.data       256000                       # number of LoadLockedReq miss cycles
system.cpu.dcache.LoadLockedReq_miss_latency::total       256000                       # number of LoadLockedReq miss cycles
system.cpu.dcache.LoadLockedReq_accesses::.cpu.data          311                       # number of LoadLockedReq accesses(hits+misses)
system.cpu.dcache.LoadLockedReq_accesses::total          311                       # number of LoadLockedReq accesses(hits+misses)
system.cpu.dcache.LoadLockedReq_miss_rate::.cpu.data     0.019293                       # miss rate for LoadLockedReq accesses
system.cpu.dcache.LoadLockedReq_miss_rate::total     0.019293                       # miss rate for LoadLockedReq accesses
system.cpu.dcache.LoadLockedReq_avg_miss_latency::.cpu.data 42666.666667                       # average LoadLockedReq miss latency
system.cpu.dcache.LoadLockedReq_avg_miss_latency::total 42666.666667                       # average LoadLockedReq miss latency
system.cpu.dcache.LoadLockedReq_mshr_hits::.cpu.data            3                       # number of LoadLockedReq MSHR hits
system.cpu.dcache.LoadLockedReq_mshr_hits::total            3                       # number of LoadLockedReq MSHR hits
system.cpu.dcache.LoadLockedReq_mshr_misses::.cpu.data            3                       # number of LoadLockedReq MSHR misses
system.cpu.dcache.LoadLockedReq_mshr_misses::total            3                       # number of LoadLockedReq MSHR misses
system.cpu.dcache.LoadLockedReq_mshr_miss_latency::.cpu.data       211000                       # number of LoadLockedReq MSHR miss cycles
system.cpu.dcache.LoadLockedReq_mshr_miss_latency::total       211000                       # number of LoadLockedReq MSHR miss cycles
system.cpu.dcache.LoadLockedReq_mshr_miss_rate::.cpu.data     0.009646                       # mshr miss rate for LoadLockedReq accesses
system.cpu.dcache.LoadLockedReq_mshr_miss_rate::total     0.009646                       # mshr miss rate for LoadLockedReq accesses
system.cpu.dcache.LoadLockedReq_avg_mshr_miss_latency::.cpu.data 70333.333333                       # average LoadLockedReq mshr miss latency
system.cpu.dcache.LoadLockedReq_avg_mshr_miss_latency::total 70333.333333                       # average LoadLockedReq mshr miss latency
system.cpu.dcache.StoreCondReq_hits::.cpu.data          278                       # number of StoreCondReq hits
system.cpu.dcache.StoreCondReq_hits::total          278                       # number of StoreCondReq hits
system.cpu.dcache.StoreCondReq_accesses::.cpu.data          278                       # number of StoreCondReq accesses(hits+misses)
system.cpu.dcache.StoreCondReq_accesses::total          278                       # number of StoreCondReq accesses(hits+misses)
system.cpu.dcache.power_state.pwrStateResidencyTicks::UNDEFINED   1206607500                       # Cumulative time (in ticks) in various power states
system.cpu.dcache.tags.tagsinuse           763.631307                       # Cycle average of tags in use
system.cpu.dcache.tags.total_refs              618698                       # Total number of references to valid blocks.
system.cpu.dcache.tags.sampled_refs             18869                       # Sample count of references to valid blocks.
system.cpu.dcache.tags.avg_refs             32.789125                       # Average number of references to valid blocks.
system.cpu.dcache.tags.warmup_cycle            195500                       # Cycle when the warmup percentage was hit.
system.cpu.dcache.tags.occ_blocks::.cpu.data   763.631307                       # Average occupied blocks per requestor
system.cpu.dcache.tags.occ_percent::.cpu.data     0.745734                       # Average percentage of cache occupancy
system.cpu.dcache.tags.occ_percent::total     0.745734                       # Average percentage of cache occupancy
system.cpu.dcache.tags.occ_task_id_blocks::1024         1024                       # Occupied blocks per task id
system.cpu.dcache.tags.age_task_id_blocks_1024::0          136                       # Occupied blocks per task id
system.cpu.dcache.tags.age_task_id_blocks_1024::1          888                       # Occupied blocks per task id
system.cpu.dcache.tags.occ_task_id_percent::1024            1                       # Percentage of cache occupancy per task id
system.cpu.dcache.tags.tag_accesses           1494773                       # Number of tag accesses
system.cpu.dcache.tags.data_accesses          1494773                       # Number of data accesses
system.cpu.dcache.tags.power_state.pwrStateResidencyTicks::UNDEFINED   1206607500                       # Cumulative time (in ticks) in various power states
system.cpu.power_state.pwrStateResidencyTicks::ON   1206607500                       # Cumulative time (in ticks) in various power states

---------- End Simulation Statistics   ----------
