
---------- Begin Simulation Statistics ----------
final_tick                                 1044414500                       # Number of ticks from beginning of simulation (restored from checkpoints and never reset)
host_inst_rate                                 278726                       # Simulator instruction rate (inst/s)
host_mem_usage                                 867096                       # Number of bytes of host memory used
host_op_rate                                   294113                       # Simulator op (including micro ops) rate (op/s)
host_seconds                                    15.17                       # Real time elapsed on the host
host_tick_rate                               68844672                       # Simulator tick rate (ticks/s)
sim_freq                                 1000000000000                       # Frequency of simulated ticks
sim_insts                                     4228395                       # Number of instructions simulated
sim_ops                                       4461863                       # Number of ops (including micro ops) simulated
sim_seconds                                  0.001044                       # Number of seconds simulated
sim_ticks                                  1044414500                       # Number of ticks simulated
system.cpu.branchPred.BTBCorrect                    0                       # Number of correct BTB predictions (this stat may not work properly.
system.cpu.branchPred.BTBHitPct             98.836402                       # BTB Hit Percentage
system.cpu.branchPred.BTBHits                  334580                       # Number of BTB hits
system.cpu.branchPred.BTBLookups               338519                       # Number of BTB lookups
system.cpu.branchPred.RASInCorrect                  3                       # Number of incorrect RAS predictions.
system.cpu.branchPred.condIncorrect              4705                       # Number of conditional branches incorrect
system.cpu.branchPred.condPredicted            380117                       # Number of conditional branches predicted
system.cpu.branchPred.indirectHits               1257                       # Number of indirect target hits.
system.cpu.branchPred.indirectLookups            2307                       # Number of indirect predictor lookups.
system.cpu.branchPred.indirectMisses             1050                       # Number of indirect misses.
system.cpu.branchPred.lookups                  520031                       # Number of BP lookups
system.cpu.branchPred.usedRAS                   65087                       # Number of times the RAS was used to get a target.
system.cpu.branchPredindirectMispredicted          312                       # Number of mispredicted indirect branches.
system.cpu.cc_regfile_reads                    888397                       # number of cc regfile reads
system.cpu.cc_regfile_writes                   885692                       # number of cc regfile writes
system.cpu.commit.amos                              0                       # Number of atomic instructions committed
system.cpu.commit.branchMispredicts              3751                       # The number of times a branch was mispredicted
system.cpu.commit.branches                     487016                       # Number of branches committed
system.cpu.commit.bw_lim_events                370868                       # number cycles where commit BW limit reached
system.cpu.commit.commitNonSpecStalls             313                       # The number of times commit has been forced to stall to communicate backwards
system.cpu.commit.commitSquashedInsts          110426                       # The number of squashed insts skipped by commit
system.cpu.commit.committedInsts              4228952                       # Number of instructions committed
system.cpu.commit.committedOps                4462420                       # Number of ops (including micro ops) committed
system.cpu.commit.committed_per_cycle::samples      1964027                       # Number of insts commited each cycle
system.cpu.commit.committed_per_cycle::mean     2.272077                       # Number of insts commited each cycle
system.cpu.commit.committed_per_cycle::stdev     3.095058                       # Number of insts commited each cycle
system.cpu.commit.committed_per_cycle::underflows            0      0.00%      0.00% # Number of insts commited each cycle
system.cpu.commit.committed_per_cycle::0       923566     47.02%     47.02% # Number of insts commited each cycle
system.cpu.commit.committed_per_cycle::1       279683     14.24%     61.26% # Number of insts commited each cycle
system.cpu.commit.committed_per_cycle::2       259889     13.23%     74.50% # Number of insts commited each cycle
system.cpu.commit.committed_per_cycle::3        13464      0.69%     75.18% # Number of insts commited each cycle
system.cpu.commit.committed_per_cycle::4         7151      0.36%     75.55% # Number of insts commited each cycle
system.cpu.commit.committed_per_cycle::5        53272      2.71%     78.26% # Number of insts commited each cycle
system.cpu.commit.committed_per_cycle::6        32279      1.64%     79.90% # Number of insts commited each cycle
system.cpu.commit.committed_per_cycle::7        23855      1.21%     81.12% # Number of insts commited each cycle
system.cpu.commit.committed_per_cycle::8       370868     18.88%    100.00% # Number of insts commited each cycle
system.cpu.commit.committed_per_cycle::overflows            0      0.00%    100.00% # Number of insts commited each cycle
system.cpu.commit.committed_per_cycle::min_value            0                       # Number of insts commited each cycle
system.cpu.commit.committed_per_cycle::max_value            8                       # Number of insts commited each cycle
system.cpu.commit.committed_per_cycle::total      1964027                       # Number of insts commited each cycle
system.cpu.commit.fp_insts                          0                       # Number of committed floating point instructions.
system.cpu.commit.function_calls                63038                       # Number of function calls committed.
system.cpu.commit.int_insts                   2716588                       # Number of committed integer instructions.
system.cpu.commit.loads                        501197                       # Number of loads committed
system.cpu.commit.membars                         278                       # Number of memory barriers committed
system.cpu.commit.op_class_0::No_OpClass          165      0.00%      0.00% # Class of committed instruction
system.cpu.commit.op_class_0::IntAlu          2086122     46.75%     46.75% # Class of committed instruction
system.cpu.commit.op_class_0::IntMult            3338      0.07%     46.83% # Class of committed instruction
system.cpu.commit.op_class_0::IntDiv              459      0.01%     46.84% # Class of committed instruction
system.cpu.commit.op_class_0::FloatAdd         334068      7.49%     54.32% # Class of committed instruction
system.cpu.commit.op_class_0::FloatCmp              4      0.00%     54.32% # Class of committed instruction
system.cpu.commit.op_class_0::FloatCvt          76968      1.72%     56.05% # Class of committed instruction
system.cpu.commit.op_class_0::FloatMult        257002      5.76%     61.81% # Class of committed instruction
system.cpu.commit.op_class_0::FloatMultAcc       811455     18.18%     79.99% # Class of committed instruction
system.cpu.commit.op_class_0::FloatDiv              3      0.00%     79.99% # Class of committed instruction
system.cpu.commit.op_class_0::FloatMisc        176468      3.95%     83.95% # Class of committed instruction
system.cpu.commit.op_class_0::FloatSqrt             0      0.00%     83.95% # Class of committed instruction
system.cpu.commit.op_class_0::SimdAdd             385      0.01%     83.96% # Class of committed instruction
system.cpu.commit.op_class_0::SimdAddAcc            0      0.00%     83.96% # Class of committed instruction
system.cpu.commit.op_class_0::SimdAlu             504      0.01%     83.97% # Class of committed instruction
system.cpu.commit.op_class_0::SimdCmp             460      0.01%     83.98% # Class of committed instruction
system.cpu.commit.op_class_0::SimdCvt               0      0.00%     83.98% # Class of committed instruction
system.cpu.commit.op_class_0::SimdMisc            477      0.01%     83.99% # Class of committed instruction
system.cpu.commit.op_class_0::SimdMult              0      0.00%     83.99% # Class of committed instruction
system.cpu.commit.op_class_0::SimdMultAcc            0      0.00%     83.99% # Class of committed instruction
system.cpu.commit.op_class_0::SimdShift             0      0.00%     83.99% # Class of committed instruction
system.cpu.commit.op_class_0::SimdShiftAcc            0      0.00%     83.99% # Class of committed instruction
system.cpu.commit.op_class_0::SimdDiv               0      0.00%     83.99% # Class of committed instruction
system.cpu.commit.op_class_0::SimdSqrt              0      0.00%     83.99% # Class of committed instruction
system.cpu.commit.op_class_0::SimdFloatAdd            0      0.00%     83.99% # Class of committed instruction
system.cpu.commit.op_class_0::SimdFloatAlu            0      0.00%     83.99% # Class of committed instruction
system.cpu.commit.op_class_0::SimdFloatCmp            0      0.00%     83.99% # Class of committed instruction
system.cpu.commit.op_class_0::SimdFloatCvt            0      0.00%     83.99% # Class of committed instruction
system.cpu.commit.op_class_0::SimdFloatDiv            0      0.00%     83.99% # Class of committed instruction
system.cpu.commit.op_class_0::SimdFloatMisc            0      0.00%     83.99% # Class of committed instruction
system.cpu.commit.op_class_0::SimdFloatMult            0      0.00%     83.99% # Class of committed instruction
system.cpu.commit.op_class_0::SimdFloatMultAcc            0      0.00%     83.99% # Class of committed instruction
system.cpu.commit.op_class_0::SimdFloatSqrt            0      0.00%     83.99% # Class of committed instruction
system.cpu.commit.op_class_0::SimdReduceAdd            0      0.00%     83.99% # Class of committed instruction
system.cpu.commit.op_class_0::SimdReduceAlu            0      0.00%     83.99% # Class of committed instruction
system.cpu.commit.op_class_0::SimdReduceCmp            0      0.00%     83.99% # Class of committed instruction
system.cpu.commit.op_class_0::SimdFloatReduceAdd            0      0.00%     83.99% # Class of committed instruction
system.cpu.commit.op_class_0::SimdFloatReduceCmp            0      0.00%     83.99% # Class of committed instruction
system.cpu.commit.op_class_0::SimdAes               0      0.00%     83.99% # Class of committed instruction
system.cpu.commit.op_class_0::SimdAesMix            0      0.00%     83.99% # Class of committed instruction
system.cpu.commit.op_class_0::SimdSha1Hash            0      0.00%     83.99% # Class of committed instruction
system.cpu.commit.op_class_0::SimdSha1Hash2            0      0.00%     83.99% # Class of committed instruction
system.cpu.commit.op_class_0::SimdSha256Hash            0      0.00%     83.99% # Class of committed instruction
system.cpu.commit.op_class_0::SimdSha256Hash2            0      0.00%     83.99% # Class of committed instruction
system.cpu.commit.op_class_0::SimdShaSigma2            0      0.00%     83.99% # Class of committed instruction
system.cpu.commit.op_class_0::SimdShaSigma3            0      0.00%     83.99% # Class of committed instruction
system.cpu.commit.op_class_0::SimdPredAlu            0      0.00%     83.99% # Class of committed instruction
system.cpu.commit.op_class_0::MemRead          501197     11.23%     95.22% # Class of committed instruction
system.cpu.commit.op_class_0::MemWrite         213345      4.78%    100.00% # Class of committed instruction
system.cpu.commit.op_class_0::FloatMemRead            0      0.00%    100.00% # Class of committed instruction
system.cpu.commit.op_class_0::FloatMemWrite            0      0.00%    100.00% # Class of committed instruction
system.cpu.commit.op_class_0::IprAccess             0      0.00%    100.00% # Class of committed instruction
system.cpu.commit.op_class_0::InstPrefetch            0      0.00%    100.00% # Class of committed instruction
system.cpu.commit.op_class_0::total           4462420                       # Class of committed instruction
system.cpu.commit.refs                         714542                       # Number of memory references committed
system.cpu.commit.swp_count                         0                       # Number of s/w prefetches committed
system.cpu.commit.vec_insts                   2111732                       # Number of committed Vector instructions.
system.cpu.committedInsts                     4228395                       # Number of Instructions Simulated
system.cpu.committedOps                       4461863                       # Number of Ops (including micro ops) Simulated
system.cpu.cpi                               0.494001                       # CPI: Cycles Per Instruction
system.cpu.cpi_total                         0.494001                       # CPI: Total CPI of All Threads
system.cpu.decode.BlockedCycles                363924                       # Number of cycles decode is blocked
system.cpu.decode.BranchMispred                   982                       # Number of times decode detected a branch misprediction
system.cpu.decode.BranchResolved               333989                       # Number of times decode resolved a branch
system.cpu.decode.DecodedInsts                4610314                       # Number of instructions handled by decode
system.cpu.decode.IdleCycles                   638920                       # Number of cycles decode is idle
system.cpu.decode.RunCycles                    953515                       # Number of cycles decode is running
system.cpu.decode.SquashCycles                   4155                       # Number of cycles decode is squashing
system.cpu.decode.SquashedInsts                  3546                       # Number of squashed instructions handled by decode
system.cpu.decode.UnblockCycles                 19924                       # Number of cycles decode is unblocking
system.cpu.dtb.accesses                             0                       # DTB accesses
system.cpu.dtb.align_faults                         0                       # Number of TLB faults due to alignment restrictions
system.cpu.dtb.domain_faults                        0                       # Number of TLB faults due to domain restrictions
system.cpu.dtb.flush_entries                        0                       # Number of entries that have been flushed from TLB
system.cpu.dtb.flush_tlb                            0                       # Number of times complete TLB was flushed
system.cpu.dtb.flush_tlb_asid                       0                       # Number of times TLB was flushed by ASID
system.cpu.dtb.flush_tlb_mva                        0                       # Number of times TLB was flushed by MVA
system.cpu.dtb.flush_tlb_mva_asid                   0                       # Number of times TLB was flushed by MVA & ASID
system.cpu.dtb.hits                                 0                       # DTB hits
system.cpu.dtb.inst_accesses                        0                       # ITB inst accesses
system.cpu.dtb.inst_hits                            0                       # ITB inst hits
system.cpu.dtb.inst_misses                          0                       # ITB inst misses
system.cpu.dtb.misses                               0                       # DTB misses
system.cpu.dtb.perms_faults                         0                       # Number of TLB faults due to permissions restrictions
system.cpu.dtb.prefetch_faults                      0                       # Number of TLB faults due to prefetch
system.cpu.dtb.read_accesses                        0                       # DTB read accesses
system.cpu.dtb.read_hits                            0                       # DTB read hits
system.cpu.dtb.read_misses                          0                       # DTB read misses
system.cpu.dtb.stage2_mmu.stage2_tlb.accesses            0                       # DTB accesses
system.cpu.dtb.stage2_mmu.stage2_tlb.align_faults            0                       # Number of TLB faults due to alignment restrictions
system.cpu.dtb.stage2_mmu.stage2_tlb.domain_faults            0                       # Number of TLB faults due to domain restrictions
system.cpu.dtb.stage2_mmu.stage2_tlb.flush_entries            0                       # Number of entries that have been flushed from TLB
system.cpu.dtb.stage2_mmu.stage2_tlb.flush_tlb            0                       # Number of times complete TLB was flushed
system.cpu.dtb.stage2_mmu.stage2_tlb.flush_tlb_asid            0                       # Number of times TLB was flushed by ASID
system.cpu.dtb.stage2_mmu.stage2_tlb.flush_tlb_mva            0                       # Number of times TLB was flushed by MVA
system.cpu.dtb.stage2_mmu.stage2_tlb.flush_tlb_mva_asid            0                       # Number of times TLB was flushed by MVA & ASID
system.cpu.dtb.stage2_mmu.stage2_tlb.hits            0                       # DTB hits
system.cpu.dtb.stage2_mmu.stage2_tlb.inst_accesses            0                       # ITB inst accesses
system.cpu.dtb.stage2_mmu.stage2_tlb.inst_hits            0                       # ITB inst hits
system.cpu.dtb.stage2_mmu.stage2_tlb.inst_misses            0                       # ITB inst misses
system.cpu.dtb.stage2_mmu.stage2_tlb.misses            0                       # DTB misses
system.cpu.dtb.stage2_mmu.stage2_tlb.perms_faults            0                       # Number of TLB faults due to permissions restrictions
system.cpu.dtb.stage2_mmu.stage2_tlb.prefetch_faults            0                       # Number of TLB faults due to prefetch
system.cpu.dtb.stage2_mmu.stage2_tlb.read_accesses            0                       # DTB read accesses
system.cpu.dtb.stage2_mmu.stage2_tlb.read_hits            0                       # DTB read hits
system.cpu.dtb.stage2_mmu.stage2_tlb.read_misses            0                       # DTB read misses
system.cpu.dtb.stage2_mmu.stage2_tlb.walker.walkRequestOrigin_Requested::Data            0                       # Table walker requests started/completed, data/inst
system.cpu.dtb.stage2_mmu.stage2_tlb.walker.walkRequestOrigin_Requested::Inst            0                       # Table walker requests started/completed, data/inst
system.cpu.dtb.stage2_mmu.stage2_tlb.walker.walkRequestOrigin_Requested::total            0                       # Table walker requests started/completed, data/inst
system.cpu.dtb.stage2_mmu.stage2_tlb.walker.walkRequestOrigin_Completed::Data            0                       # Table walker requests started/completed, data/inst
system.cpu.dtb.stage2_mmu.stage2_tlb.walker.walkRequestOrigin_Completed::Inst            0                       # Table walker requests started/completed, data/inst
system.cpu.dtb.stage2_mmu.stage2_tlb.walker.walkRequestOrigin_Completed::total            0                       # Table walker requests started/completed, data/inst
system.cpu.dtb.stage2_mmu.stage2_tlb.walker.walkRequestOrigin::total            0                       # Table walker requests started/completed, data/inst
system.cpu.dtb.stage2_mmu.stage2_tlb.walker.walks            0                       # Table walker walks requested
system.cpu.dtb.stage2_mmu.stage2_tlb.write_accesses            0                       # DTB write accesses
system.cpu.dtb.stage2_mmu.stage2_tlb.write_hits            0                       # DTB write hits
system.cpu.dtb.stage2_mmu.stage2_tlb.write_misses            0                       # DTB write misses
system.cpu.dtb.walker.walkRequestOrigin_Requested::Data            0                       # Table walker requests started/completed, data/inst
system.cpu.dtb.walker.walkRequestOrigin_Requested::Inst            0                       # Table walker requests started/completed, data/inst
system.cpu.dtb.walker.walkRequestOrigin_Requested::total            0                       # Table walker requests started/completed, data/inst
system.cpu.dtb.walker.walkRequestOrigin_Completed::Data            0                       # Table walker requests started/completed, data/inst
system.cpu.dtb.walker.walkRequestOrigin_Completed::Inst            0                       # Table walker requests started/completed, data/inst
system.cpu.dtb.walker.walkRequestOrigin_Completed::total            0                       # Table walker requests started/completed, data/inst
system.cpu.dtb.walker.walkRequestOrigin::total            0                       # Table walker requests started/completed, data/inst
system.cpu.dtb.walker.walks                         0                       # Table walker walks requested
system.cpu.dtb.write_accesses                       0                       # DTB write accesses
system.cpu.dtb.write_hits                           0                       # DTB write hits
system.cpu.dtb.write_misses                         0                       # DTB write misses
system.cpu.fetch.Branches                      520031                       # Number of branches that fetch encountered
system.cpu.fetch.CacheLines                    717459                       # Number of cache lines fetched
system.cpu.fetch.Cycles                       1225548                       # Number of cycles fetch has run and was not squashing or blocked
system.cpu.fetch.IcacheSquashes                  2547                       # Number of outstanding Icache misses that were squashed
system.cpu.fetch.IcacheWaitRetryStallCycles           78                       # Number of stall cycles due to full MSHR
system.cpu.fetch.Insts                        4389963                       # Number of instructions fetch has processed
system.cpu.fetch.MiscStallCycles                    5                       # Number of cycles fetch has spent waiting on interrupts, or bad addresses, or out of MSHRs
system.cpu.fetch.SquashCycles                   10218                       # Number of cycles fetch has spent squashing
system.cpu.fetch.branchRate                  0.248958                       # Number of branch fetches per cycle
system.cpu.fetch.icacheStallCycles             749698                       # Number of cycles fetch is stalled on an Icache miss
system.cpu.fetch.predictedBranches             400924                       # Number of branches that fetch has predicted taken
system.cpu.fetch.rate                        2.101636                       # Number of inst fetches per cycle
system.cpu.fetch.rateDist::samples            1980438                       # Number of instructions fetched each cycle (Total)
system.cpu.fetch.rateDist::mean              2.342964                       # Number of instructions fetched each cycle (Total)
system.cpu.fetch.rateDist::stdev             2.924893                       # Number of instructions fetched each cycle (Total)
system.cpu.fetch.rateDist::underflows               0      0.00%      0.00% # Number of instructions fetched each cycle (Total)
system.cpu.fetch.rateDist::0                   933668     47.14%     47.14% # Number of instructions fetched each cycle (Total)
system.cpu.fetch.rateDist::1                   191660      9.68%     56.82% # Number of instructions fetched each cycle (Total)
system.cpu.fetch.rateDist::2                   134708      6.80%     63.62% # Number of instructions fetched each cycle (Total)
system.cpu.fetch.rateDist::3                   107868      5.45%     69.07% # Number of instructions fetched each cycle (Total)
system.cpu.fetch.rateDist::4                   178206      9.00%     78.07% # Number of instructions fetched each cycle (Total)
system.cpu.fetch.rateDist::5                    39347      1.99%     80.06% # Number of instructions fetched each cycle (Total)
system.cpu.fetch.rateDist::6                   104518      5.28%     85.33% # Number of instructions fetched each cycle (Total)
system.cpu.fetch.rateDist::7                     4956      0.25%     85.58% # Number of instructions fetched each cycle (Total)
system.cpu.fetch.rateDist::8                   285507     14.42%    100.00% # Number of instructions fetched each cycle (Total)
system.cpu.fetch.rateDist::overflows                0      0.00%    100.00% # Number of instructions fetched each cycle (Total)
system.cpu.fetch.rateDist::min_value                0                       # Number of instructions fetched each cycle (Total)
system.cpu.fetch.rateDist::max_value                8                       # Number of instructions fetched each cycle (Total)
system.cpu.fetch.rateDist::total              1980438                       # Number of instructions fetched each cycle (Total)
system.cpu.idleCycles                          108393                       # Total number of cycles that the CPU has spent unscheduled due to idling
system.cpu.iew.branchMispredicts                 4366                       # Number of branch mispredicts detected at execute
system.cpu.iew.exec_branches                   502400                       # Number of branches executed
system.cpu.iew.exec_nop                           742                       # number of nop insts executed
system.cpu.iew.exec_rate                     2.179394                       # Inst execution rate
system.cpu.iew.exec_refs                       738719                       # number of memory reference insts executed
system.cpu.iew.exec_stores                     225845                       # Number of stores executed
system.cpu.iew.exec_swp                             0                       # number of swp insts executed
system.cpu.iew.iewBlockCycles                   25147                       # Number of cycles IEW is blocking
system.cpu.iew.iewDispLoadInsts                513108                       # Number of dispatched load instructions
system.cpu.iew.iewDispNonSpecInsts                407                       # Number of dispatched non-speculative instructions
system.cpu.iew.iewDispSquashedInsts              1759                       # Number of squashed instructions skipped by dispatch
system.cpu.iew.iewDispStoreInsts               230633                       # Number of dispatched store instructions
system.cpu.iew.iewDispatchedInsts             4578593                       # Number of instructions dispatched to IQ
system.cpu.iew.iewExecLoadInsts                512874                       # Number of load instructions executed
system.cpu.iew.iewExecSquashedInsts              6869                       # Number of squashed instructions skipped in execute
system.cpu.iew.iewExecutedInsts               4552385                       # Number of executed instructions
system.cpu.iew.iewIQFullEvents                    214                       # Number of times the IQ has become full, causing a stall
system.cpu.iew.iewIdleCycles                        0                       # Number of cycles IEW is idle
system.cpu.iew.iewLSQFullEvents                  3003                       # Number of times the LSQ has become full, causing a stall
system.cpu.iew.iewSquashCycles                   4155                       # Number of cycles IEW is squashing
system.cpu.iew.iewUnblockCycles                  3324                       # Number of cycles IEW is unblocking
system.cpu.iew.lsq.thread0.blockedLoads             0                       # Number of blocked loads due to partial load-store forwarding
system.cpu.iew.lsq.thread0.cacheBlocked         14096                       # Number of times an access to memory failed due to the cache being blocked
system.cpu.iew.lsq.thread0.forwLoads             3057                       # Number of loads that had data forwarded from stores
system.cpu.iew.lsq.thread0.ignoredResponses           56                       # Number of memory responses ignored because the instruction is squashed
system.cpu.iew.lsq.thread0.invAddrLoads             0                       # Number of loads ignored due to an invalid address
system.cpu.iew.lsq.thread0.invAddrSwpfs             0                       # Number of software prefetches ignored due to an invalid address
system.cpu.iew.lsq.thread0.memOrderViolation          115                       # Number of memory ordering violations
system.cpu.iew.lsq.thread0.rescheduledLoads         2106                       # Number of loads that were rescheduled
system.cpu.iew.lsq.thread0.squashedLoads        11911                       # Number of loads squashed
system.cpu.iew.lsq.thread0.squashedStores        17288                       # Number of stores squashed
system.cpu.iew.memOrderViolationEvents            115                       # Number of memory order violations
system.cpu.iew.predictedNotTakenIncorrect         3285                       # Number of branches that were predicted not taken incorrectly
system.cpu.iew.predictedTakenIncorrect           1081                       # Number of branches that were predicted taken incorrectly
system.cpu.iew.wb_consumers                   5862668                       # num instructions consuming a value
system.cpu.iew.wb_count                       4537467                       # cumulative count of insts written-back
system.cpu.iew.wb_fanout                     0.605987                       # average fanout of values written-back
system.cpu.iew.wb_producers                   3552701                       # num instructions producing a value
system.cpu.iew.wb_rate                       2.172252                       # insts written-back per cycle
system.cpu.iew.wb_sent                        4546589                       # cumulative count of insts sent to commit
system.cpu.int_regfile_reads                  3281178                       # number of integer regfile reads
system.cpu.int_regfile_writes                 1898951                       # number of integer regfile writes
system.cpu.ipc                               2.024288                       # IPC: Instructions Per Cycle
system.cpu.ipc_total                         2.024288                       # IPC: Total IPC of All Threads
system.cpu.iq.FU_type_0::No_OpClass               183      0.00%      0.00% # Type of FU issued
system.cpu.iq.FU_type_0::IntAlu               2155593     47.28%     47.28% # Type of FU issued
system.cpu.iq.FU_type_0::IntMult                 3453      0.08%     47.36% # Type of FU issued
system.cpu.iq.FU_type_0::IntDiv                   518      0.01%     47.37% # Type of FU issued
system.cpu.iq.FU_type_0::FloatAdd              334085      7.33%     54.70% # Type of FU issued
system.cpu.iq.FU_type_0::FloatCmp                   5      0.00%     54.70% # Type of FU issued
system.cpu.iq.FU_type_0::FloatCvt               76972      1.69%     56.39% # Type of FU issued
system.cpu.iq.FU_type_0::FloatMult             257024      5.64%     62.02% # Type of FU issued
system.cpu.iq.FU_type_0::FloatMultAcc          811502     17.80%     79.82% # Type of FU issued
system.cpu.iq.FU_type_0::FloatDiv                   3      0.00%     79.82% # Type of FU issued
system.cpu.iq.FU_type_0::FloatMisc             176535      3.87%     83.70% # Type of FU issued
system.cpu.iq.FU_type_0::FloatSqrt                  0      0.00%     83.70% # Type of FU issued
system.cpu.iq.FU_type_0::SimdAdd                  437      0.01%     83.70% # Type of FU issued
system.cpu.iq.FU_type_0::SimdAddAcc                 0      0.00%     83.70% # Type of FU issued
system.cpu.iq.FU_type_0::SimdAlu                  562      0.01%     83.72% # Type of FU issued
system.cpu.iq.FU_type_0::SimdCmp                  507      0.01%     83.73% # Type of FU issued
system.cpu.iq.FU_type_0::SimdCvt                    0      0.00%     83.73% # Type of FU issued
system.cpu.iq.FU_type_0::SimdMisc                 536      0.01%     83.74% # Type of FU issued
system.cpu.iq.FU_type_0::SimdMult                   0      0.00%     83.74% # Type of FU issued
system.cpu.iq.FU_type_0::SimdMultAcc                0      0.00%     83.74% # Type of FU issued
system.cpu.iq.FU_type_0::SimdShift                  0      0.00%     83.74% # Type of FU issued
system.cpu.iq.FU_type_0::SimdShiftAcc               0      0.00%     83.74% # Type of FU issued
system.cpu.iq.FU_type_0::SimdDiv                    0      0.00%     83.74% # Type of FU issued
system.cpu.iq.FU_type_0::SimdSqrt                   0      0.00%     83.74% # Type of FU issued
system.cpu.iq.FU_type_0::SimdFloatAdd               0      0.00%     83.74% # Type of FU issued
system.cpu.iq.FU_type_0::SimdFloatAlu               0      0.00%     83.74% # Type of FU issued
system.cpu.iq.FU_type_0::SimdFloatCmp               0      0.00%     83.74% # Type of FU issued
system.cpu.iq.FU_type_0::SimdFloatCvt               0      0.00%     83.74% # Type of FU issued
system.cpu.iq.FU_type_0::SimdFloatDiv               0      0.00%     83.74% # Type of FU issued
system.cpu.iq.FU_type_0::SimdFloatMisc              0      0.00%     83.74% # Type of FU issued
system.cpu.iq.FU_type_0::SimdFloatMult              0      0.00%     83.74% # Type of FU issued
system.cpu.iq.FU_type_0::SimdFloatMultAcc            0      0.00%     83.74% # Type of FU issued
system.cpu.iq.FU_type_0::SimdFloatSqrt              0      0.00%     83.74% # Type of FU issued
system.cpu.iq.FU_type_0::SimdReduceAdd              0      0.00%     83.74% # Type of FU issued
system.cpu.iq.FU_type_0::SimdReduceAlu              0      0.00%     83.74% # Type of FU issued
system.cpu.iq.FU_type_0::SimdReduceCmp              0      0.00%     83.74% # Type of FU issued
system.cpu.iq.FU_type_0::SimdFloatReduceAdd            0      0.00%     83.74% # Type of FU issued
system.cpu.iq.FU_type_0::SimdFloatReduceCmp            0      0.00%     83.74% # Type of FU issued
system.cpu.iq.FU_type_0::SimdAes                    0      0.00%     83.74% # Type of FU issued
system.cpu.iq.FU_type_0::SimdAesMix                 0      0.00%     83.74% # Type of FU issued
system.cpu.iq.FU_type_0::SimdSha1Hash               0      0.00%     83.74% # Type of FU issued
system.cpu.iq.FU_type_0::SimdSha1Hash2              0      0.00%     83.74% # Type of FU issued
system.cpu.iq.FU_type_0::SimdSha256Hash             0      0.00%     83.74% # Type of FU issued
system.cpu.iq.FU_type_0::SimdSha256Hash2            0      0.00%     83.74% # Type of FU issued
system.cpu.iq.FU_type_0::SimdShaSigma2              0      0.00%     83.74% # Type of FU issued
system.cpu.iq.FU_type_0::SimdShaSigma3              0      0.00%     83.74% # Type of FU issued
system.cpu.iq.FU_type_0::SimdPredAlu                0      0.00%     83.74% # Type of FU issued
system.cpu.iq.FU_type_0::MemRead               514277     11.28%     95.02% # Type of FU issued
system.cpu.iq.FU_type_0::MemWrite              227062      4.98%    100.00% # Type of FU issued
system.cpu.iq.FU_type_0::FloatMemRead               0      0.00%    100.00% # Type of FU issued
system.cpu.iq.FU_type_0::FloatMemWrite              0      0.00%    100.00% # Type of FU issued
system.cpu.iq.FU_type_0::IprAccess                  0      0.00%    100.00% # Type of FU issued
system.cpu.iq.FU_type_0::InstPrefetch               0      0.00%    100.00% # Type of FU issued
system.cpu.iq.FU_type_0::total                4559254                       # Type of FU issued
system.cpu.iq.fp_alu_accesses                       0                       # Number of floating point alu accesses
system.cpu.iq.fp_inst_queue_reads                   0                       # Number of floating instruction queue reads
system.cpu.iq.fp_inst_queue_wakeup_accesses            0                       # Number of floating instruction queue wakeup accesses
system.cpu.iq.fp_inst_queue_writes                  0                       # Number of floating instruction queue writes
system.cpu.iq.fu_busy_cnt                      135404                       # FU busy when requested
system.cpu.iq.fu_busy_rate                   0.029699                       # FU busy rate (busy events/executed inst)
system.cpu.iq.fu_full::No_OpClass                   0      0.00%      0.00% # attempts to use FU when none available
system.cpu.iq.fu_full::IntAlu                    2531      1.87%      1.87% # attempts to use FU when none available
system.cpu.iq.fu_full::IntMult                    527      0.39%      2.26% # attempts to use FU when none available
system.cpu.iq.fu_full::IntDiv                       0      0.00%      2.26% # attempts to use FU when none available
system.cpu.iq.fu_full::FloatAdd                     0      0.00%      2.26% # attempts to use FU when none available
system.cpu.iq.fu_full::FloatCmp                     0      0.00%      2.26% # attempts to use FU when none available
system.cpu.iq.fu_full::FloatCvt                     0      0.00%      2.26% # attempts to use FU when none available
system.cpu.iq.fu_full::FloatMult                18656     13.78%     16.04% # attempts to use FU when none available
system.cpu.iq.fu_full::FloatMultAcc             81451     60.15%     76.19% # attempts to use FU when none available
system.cpu.iq.fu_full::FloatDiv                     0      0.00%     76.19% # attempts to use FU when none available
system.cpu.iq.fu_full::FloatMisc                26962     19.91%     96.10% # attempts to use FU when none available
system.cpu.iq.fu_full::FloatSqrt                    0      0.00%     96.10% # attempts to use FU when none available
system.cpu.iq.fu_full::SimdAdd                      0      0.00%     96.10% # attempts to use FU when none available
system.cpu.iq.fu_full::SimdAddAcc                   0      0.00%     96.10% # attempts to use FU when none available
system.cpu.iq.fu_full::SimdAlu                      3      0.00%     96.10% # attempts to use FU when none available
system.cpu.iq.fu_full::SimdCmp                      5      0.00%     96.11% # attempts to use FU when none available
system.cpu.iq.fu_full::SimdCvt                      0      0.00%     96.11% # attempts to use FU when none available
system.cpu.iq.fu_full::SimdMisc                     0      0.00%     96.11% # attempts to use FU when none available
system.cpu.iq.fu_full::SimdMult                     0      0.00%     96.11% # attempts to use FU when none available
system.cpu.iq.fu_full::SimdMultAcc                  0      0.00%     96.11% # attempts to use FU when none available
system.cpu.iq.fu_full::SimdShift                    0      0.00%     96.11% # attempts to use FU when none available
system.cpu.iq.fu_full::SimdShiftAcc                 0      0.00%     96.11% # attempts to use FU when none available
system.cpu.iq.fu_full::SimdDiv                      0      0.00%     96.11% # attempts to use FU when none available
system.cpu.iq.fu_full::SimdSqrt                     0      0.00%     96.11% # attempts to use FU when none available
system.cpu.iq.fu_full::SimdFloatAdd                 0      0.00%     96.11% # attempts to use FU when none available
system.cpu.iq.fu_full::SimdFloatAlu                 0      0.00%     96.11% # attempts to use FU when none available
system.cpu.iq.fu_full::SimdFloatCmp                 0      0.00%     96.11% # attempts to use FU when none available
system.cpu.iq.fu_full::SimdFloatCvt                 0      0.00%     96.11% # attempts to use FU when none available
system.cpu.iq.fu_full::SimdFloatDiv                 0      0.00%     96.11% # attempts to use FU when none available
system.cpu.iq.fu_full::SimdFloatMisc                0      0.00%     96.11% # attempts to use FU when none available
system.cpu.iq.fu_full::SimdFloatMult                0      0.00%     96.11% # attempts to use FU when none available
system.cpu.iq.fu_full::SimdFloatMultAcc             0      0.00%     96.11% # attempts to use FU when none available
system.cpu.iq.fu_full::SimdFloatSqrt                0      0.00%     96.11% # attempts to use FU when none available
system.cpu.iq.fu_full::SimdReduceAdd                0      0.00%     96.11% # attempts to use FU when none available
system.cpu.iq.fu_full::SimdReduceAlu                0      0.00%     96.11% # attempts to use FU when none available
system.cpu.iq.fu_full::SimdReduceCmp                0      0.00%     96.11% # attempts to use FU when none available
system.cpu.iq.fu_full::SimdFloatReduceAdd            0      0.00%     96.11% # attempts to use FU when none available
system.cpu.iq.fu_full::SimdFloatReduceCmp            0      0.00%     96.11% # attempts to use FU when none available
system.cpu.iq.fu_full::SimdAes                      0      0.00%     96.11% # attempts to use FU when none available
system.cpu.iq.fu_full::SimdAesMix                   0      0.00%     96.11% # attempts to use FU when none available
system.cpu.iq.fu_full::SimdSha1Hash                 0      0.00%     96.11% # attempts to use FU when none available
system.cpu.iq.fu_full::SimdSha1Hash2                0      0.00%     96.11% # attempts to use FU when none available
system.cpu.iq.fu_full::SimdSha256Hash               0      0.00%     96.11% # attempts to use FU when none available
system.cpu.iq.fu_full::SimdSha256Hash2              0      0.00%     96.11% # attempts to use FU when none available
system.cpu.iq.fu_full::SimdShaSigma2                0      0.00%     96.11% # attempts to use FU when none available
system.cpu.iq.fu_full::SimdShaSigma3                0      0.00%     96.11% # attempts to use FU when none available
system.cpu.iq.fu_full::SimdPredAlu                  0      0.00%     96.11% # attempts to use FU when none available
system.cpu.iq.fu_full::MemRead                   1885      1.39%     97.50% # attempts to use FU when none available
system.cpu.iq.fu_full::MemWrite                  3384      2.50%    100.00% # attempts to use FU when none available
system.cpu.iq.fu_full::FloatMemRead                 0      0.00%    100.00% # attempts to use FU when none available
system.cpu.iq.fu_full::FloatMemWrite                0      0.00%    100.00% # attempts to use FU when none available
system.cpu.iq.fu_full::IprAccess                    0      0.00%    100.00% # attempts to use FU when none available
system.cpu.iq.fu_full::InstPrefetch                 0      0.00%    100.00% # attempts to use FU when none available
system.cpu.iq.int_alu_accesses                2454364                       # Number of integer alu accesses
system.cpu.iq.int_inst_queue_reads            6881914                       # Number of integer instruction queue reads
system.cpu.iq.int_inst_queue_wakeup_accesses      2425090                       # Number of integer instruction queue wakeup accesses
system.cpu.iq.int_inst_queue_writes           2578804                       # Number of integer instruction queue writes
system.cpu.iq.iqInstsAdded                    4577444                       # Number of instructions added to the IQ (excludes non-spec)
system.cpu.iq.iqInstsIssued                   4559254                       # Number of instructions issued
system.cpu.iq.iqNonSpecInstsAdded                 407                       # Number of non-speculative instructions added to the IQ
system.cpu.iq.iqSquashedInstsExamined          115987                       # Number of squashed instructions iterated over during squash; mainly for profiling
system.cpu.iq.iqSquashedInstsIssued               804                       # Number of squashed instructions issued
system.cpu.iq.iqSquashedNonSpecRemoved             94                       # Number of squashed non-spec instructions that were removed
system.cpu.iq.iqSquashedOperandsExamined        72105                       # Number of squashed operands that are examined and possibly removed from graph
system.cpu.iq.issued_per_cycle::samples       1980438                       # Number of insts issued each cycle
system.cpu.iq.issued_per_cycle::mean         2.302144                       # Number of insts issued each cycle
system.cpu.iq.issued_per_cycle::stdev        2.078986                       # Number of insts issued each cycle
system.cpu.iq.issued_per_cycle::underflows            0      0.00%      0.00% # Number of insts issued each cycle
system.cpu.iq.issued_per_cycle::0              481777     24.33%     24.33% # Number of insts issued each cycle
system.cpu.iq.issued_per_cycle::1              303710     15.34%     39.66% # Number of insts issued each cycle
system.cpu.iq.issued_per_cycle::2              445002     22.47%     62.13% # Number of insts issued each cycle
system.cpu.iq.issued_per_cycle::3              275056     13.89%     76.02% # Number of insts issued each cycle
system.cpu.iq.issued_per_cycle::4              166570      8.41%     84.43% # Number of insts issued each cycle
system.cpu.iq.issued_per_cycle::5              155204      7.84%     92.27% # Number of insts issued each cycle
system.cpu.iq.issued_per_cycle::6               27506      1.39%     93.66% # Number of insts issued each cycle
system.cpu.iq.issued_per_cycle::7               71868      3.63%     97.29% # Number of insts issued each cycle
system.cpu.iq.issued_per_cycle::8               53745      2.71%    100.00% # Number of insts issued each cycle
system.cpu.iq.issued_per_cycle::overflows            0      0.00%    100.00% # Number of insts issued each cycle
system.cpu.iq.issued_per_cycle::min_value            0                       # Number of insts issued each cycle
system.cpu.iq.issued_per_cycle::max_value            8                       # Number of insts issued each cycle
system.cpu.iq.issued_per_cycle::total         1980438                       # Number of insts issued each cycle
system.cpu.iq.rate                           2.182682                       # Inst issue rate
system.cpu.iq.vec_alu_accesses                2240111                       # Number of vector alu accesses
system.cpu.iq.vec_inst_queue_reads            4353240                       # Number of vector instruction queue reads
system.cpu.iq.vec_inst_queue_wakeup_accesses      2112377                       # Number of vector instruction queue wakeup accesses
system.cpu.iq.vec_inst_queue_writes           2115144                       # Number of vector instruction queue writes
system.cpu.itb.accesses                             0                       # DTB accesses
system.cpu.itb.align_faults                         0                       # Number of TLB faults due to alignment restrictions
system.cpu.itb.domain_faults                        0                       # Number of TLB faults due to domain restrictions
system.cpu.itb.flush_entries                        0                       # Number of entries that have been flushed from TLB
system.cpu.itb.flush_tlb                            0                       # Number of times complete TLB was flushed
system.cpu.itb.flush_tlb_asid                       0                       # Number of times TLB was flushed by ASID
system.cpu.itb.flush_tlb_mva                        0                       # Number of times TLB was flushed by MVA
system.cpu.itb.flush_tlb_mva_asid                   0                       # Number of times TLB was flushed by MVA & ASID
system.cpu.itb.hits                                 0                       # DTB hits
system.cpu.itb.inst_accesses                        0                       # ITB inst accesses
system.cpu.itb.inst_hits                            0                       # ITB inst hits
system.cpu.itb.inst_misses                          0                       # ITB inst misses
system.cpu.itb.misses                               0                       # DTB misses
system.cpu.itb.perms_faults                         0                       # Number of TLB faults due to permissions restrictions
system.cpu.itb.prefetch_faults                      0                       # Number of TLB faults due to prefetch
system.cpu.itb.read_accesses                        0                       # DTB read accesses
system.cpu.itb.read_hits                            0                       # DTB read hits
system.cpu.itb.read_misses                          0                       # DTB read misses
system.cpu.itb.stage2_mmu.stage2_tlb.accesses            0                       # DTB accesses
system.cpu.itb.stage2_mmu.stage2_tlb.align_faults            0                       # Number of TLB faults due to alignment restrictions
system.cpu.itb.stage2_mmu.stage2_tlb.domain_faults            0                       # Number of TLB faults due to domain restrictions
system.cpu.itb.stage2_mmu.stage2_tlb.flush_entries            0                       # Number of entries that have been flushed from TLB
system.cpu.itb.stage2_mmu.stage2_tlb.flush_tlb            0                       # Number of times complete TLB was flushed
system.cpu.itb.stage2_mmu.stage2_tlb.flush_tlb_asid            0                       # Number of times TLB was flushed by ASID
system.cpu.itb.stage2_mmu.stage2_tlb.flush_tlb_mva            0                       # Number of times TLB was flushed by MVA
system.cpu.itb.stage2_mmu.stage2_tlb.flush_tlb_mva_asid            0                       # Number of times TLB was flushed by MVA & ASID
system.cpu.itb.stage2_mmu.stage2_tlb.hits            0                       # DTB hits
system.cpu.itb.stage2_mmu.stage2_tlb.inst_accesses            0                       # ITB inst accesses
system.cpu.itb.stage2_mmu.stage2_tlb.inst_hits            0                       # ITB inst hits
system.cpu.itb.stage2_mmu.stage2_tlb.inst_misses            0                       # ITB inst misses
system.cpu.itb.stage2_mmu.stage2_tlb.misses            0                       # DTB misses
system.cpu.itb.stage2_mmu.stage2_tlb.perms_faults            0                       # Number of TLB faults due to permissions restrictions
system.cpu.itb.stage2_mmu.stage2_tlb.prefetch_faults            0                       # Number of TLB faults due to prefetch
system.cpu.itb.stage2_mmu.stage2_tlb.read_accesses            0                       # DTB read accesses
system.cpu.itb.stage2_mmu.stage2_tlb.read_hits            0                       # DTB read hits
system.cpu.itb.stage2_mmu.stage2_tlb.read_misses            0                       # DTB read misses
system.cpu.itb.stage2_mmu.stage2_tlb.walker.walkRequestOrigin_Requested::Data            0                       # Table walker requests started/completed, data/inst
system.cpu.itb.stage2_mmu.stage2_tlb.walker.walkRequestOrigin_Requested::Inst            0                       # Table walker requests started/completed, data/inst
system.cpu.itb.stage2_mmu.stage2_tlb.walker.walkRequestOrigin_Requested::total            0                       # Table walker requests started/completed, data/inst
system.cpu.itb.stage2_mmu.stage2_tlb.walker.walkRequestOrigin_Completed::Data            0                       # Table walker requests started/completed, data/inst
system.cpu.itb.stage2_mmu.stage2_tlb.walker.walkRequestOrigin_Completed::Inst            0                       # Table walker requests started/completed, data/inst
system.cpu.itb.stage2_mmu.stage2_tlb.walker.walkRequestOrigin_Completed::total            0                       # Table walker requests started/completed, data/inst
system.cpu.itb.stage2_mmu.stage2_tlb.walker.walkRequestOrigin::total            0                       # Table walker requests started/completed, data/inst
system.cpu.itb.stage2_mmu.stage2_tlb.walker.walks            0                       # Table walker walks requested
system.cpu.itb.stage2_mmu.stage2_tlb.write_accesses            0                       # DTB write accesses
system.cpu.itb.stage2_mmu.stage2_tlb.write_hits            0                       # DTB write hits
system.cpu.itb.stage2_mmu.stage2_tlb.write_misses            0                       # DTB write misses
system.cpu.itb.walker.walkRequestOrigin_Requested::Data            0                       # Table walker requests started/completed, data/inst
system.cpu.itb.walker.walkRequestOrigin_Requested::Inst            0                       # Table walker requests started/completed, data/inst
system.cpu.itb.walker.walkRequestOrigin_Requested::total            0                       # Table walker requests started/completed, data/inst
system.cpu.itb.walker.walkRequestOrigin_Completed::Data            0                       # Table walker requests started/completed, data/inst
system.cpu.itb.walker.walkRequestOrigin_Completed::Inst            0                       # Table walker requests started/completed, data/inst
system.cpu.itb.walker.walkRequestOrigin_Completed::total            0                       # Table walker requests started/completed, data/inst
system.cpu.itb.walker.walkRequestOrigin::total            0                       # Table walker requests started/completed, data/inst
system.cpu.itb.walker.walks                         0                       # Table walker walks requested
system.cpu.itb.write_accesses                       0                       # DTB write accesses
system.cpu.itb.write_hits                           0                       # DTB write hits
system.cpu.itb.write_misses                         0                       # DTB write misses
system.cpu.memDep0.conflictingLoads              1977                       # Number of conflicting loads.
system.cpu.memDep0.conflictingStores             2653                       # Number of conflicting stores.
system.cpu.memDep0.insertedLoads               513108                       # Number of loads inserted to the mem dependence unit.
system.cpu.memDep0.insertedStores              230633                       # Number of stores inserted to the mem dependence unit.
system.cpu.misc_regfile_reads                 7988721                       # number of misc regfile reads
system.cpu.misc_regfile_writes                1480611                       # number of misc regfile writes
system.cpu.numCycles                          2088831                       # number of cpu cycles simulated
system.cpu.numWorkItemsCompleted                    0                       # number of work items this cpu completed
system.cpu.numWorkItemsStarted                      0                       # number of work items this cpu started
system.cpu.rename.BlockCycles                   32564                       # Number of cycles rename is blocking
system.cpu.rename.CommittedMaps               6322780                       # Number of HB maps that are committed
system.cpu.rename.IQFullEvents                   2780                       # Number of times rename has blocked due to IQ full
system.cpu.rename.IdleCycles                   643168                       # Number of cycles rename is idle
system.cpu.rename.LQFullEvents                    165                       # Number of times rename has blocked due to LQ full
system.cpu.rename.ROBFullEvents                   771                       # Number of times rename has blocked due to ROB full
system.cpu.rename.RenameLookups              13697888                       # Number of register rename lookups that rename has made
system.cpu.rename.RenamedInsts                4596382                       # Number of instructions processed by rename
system.cpu.rename.RenamedOperands             6465663                       # Number of destination operands rename has renamed
system.cpu.rename.RunCycles                    968888                       # Number of cycles rename is running
system.cpu.rename.SQFullEvents                 295891                       # Number of times rename has blocked due to SQ full
system.cpu.rename.SquashCycles                   4155                       # Number of cycles rename is squashing
system.cpu.rename.UnblockCycles                301294                       # Number of cycles rename is unblocking
system.cpu.rename.UndoneMaps                   142883                       # Number of HB maps that are undone due to squashing
system.cpu.rename.int_rename_lookups          3334552                       # Number of integer rename lookups
system.cpu.rename.serializeStallCycles          30369                       # count of cycles rename stalled for serializing inst
system.cpu.rename.serializingInsts               1320                       # count of serializing insts renamed
system.cpu.rename.skidInsts                     82008                       # count of insts added to the skid buffer
system.cpu.rename.tempSerializingInsts            403                       # count of temporary serializing insts renamed
system.cpu.rename.vec_rename_lookups          3741968                       # Number of vector rename lookups
system.cpu.rob.rob_reads                      6161819                       # The number of ROB reads
system.cpu.rob.rob_writes                     9162218                       # The number of ROB writes
system.cpu.timesIdled                            1128                       # Number of times that the entire CPU went into an idle state and unscheduled itself
system.cpu.vec_regfile_reads                  3740093                       # number of vector regfile reads
system.cpu.vec_regfile_writes                 2150518                       # number of vector regfile writes
system.cpu.workload.numSyscalls                    34                       # Number of system calls
system.membus.snoop_filter.hit_multi_requests            0                       # Number of requests hitting in the snoop filter with multiple (>1) holders of the requested data.
system.membus.snoop_filter.hit_multi_snoops            0                       # Number of snoops hitting in the snoop filter with multiple (>1) holders of the requested data.
system.membus.snoop_filter.hit_single_requests            0                       # Number of requests hitting in the snoop filter with a single holder of the requested data.
system.membus.snoop_filter.hit_single_snoops            0                       # Number of snoops hitting in the snoop filter with a single holder of the requested data.
system.membus.snoop_filter.tot_requests         19871                       # Total number of requests made to the snoop filter.
system.membus.snoop_filter.tot_snoops               0                       # Total number of snoops made to the snoop filter.
system.tol2bus.snoop_filter.hit_multi_requests            1                       # Number of requests hitting in the snoop filter with multiple (>1) holders of the requested data.
system.tol2bus.snoop_filter.hit_multi_snoops            0                       # Number of snoops hitting in the snoop filter with multiple (>1) holders of the requested data.
system.tol2bus.snoop_filter.hit_single_requests        18760                       # Number of requests hitting in the snoop filter with a single holder of the requested data.
system.tol2bus.snoop_filter.hit_single_snoops            0                       # Number of snoops hitting in the snoop filter with a single holder of the requested data.
system.tol2bus.snoop_filter.tot_requests        39412                       # Total number of requests made to the snoop filter.
system.tol2bus.snoop_filter.tot_snoops              0                       # Total number of snoops made to the snoop filter.
system.membus.trans_dist::ReadResp               1730                       # Transaction distribution
system.membus.trans_dist::ReadExReq             16962                       # Transaction distribution
system.membus.trans_dist::ReadExResp            16962                       # Transaction distribution
system.membus.trans_dist::ReadSharedReq          1730                       # Transaction distribution
system.membus.trans_dist::InvalidateReq          1179                       # Transaction distribution
system.membus.pkt_count_system.l2.mem_side::system.mem_ctrls.port        38563                       # Packet count per connected master and slave (bytes)
system.membus.pkt_count::total                  38563                       # Packet count per connected master and slave (bytes)
system.membus.pkt_size_system.l2.mem_side::system.mem_ctrls.port      1196288                       # Cumulative packet size per connected master and slave (bytes)
system.membus.pkt_size::total                 1196288                       # Cumulative packet size per connected master and slave (bytes)
system.membus.snoops                                0                       # Total snoops (count)
system.membus.snoopTraffic                          0                       # Total snoop traffic (bytes)
system.membus.snoop_fanout::samples             19871                       # Request fanout histogram
system.membus.snoop_fanout::mean                    0                       # Request fanout histogram
system.membus.snoop_fanout::stdev                   0                       # Request fanout histogram
system.membus.snoop_fanout::underflows              0      0.00%      0.00% # Request fanout histogram
system.membus.snoop_fanout::0                   19871    100.00%    100.00% # Request fanout histogram
system.membus.snoop_fanout::1                       0      0.00%    100.00% # Request fanout histogram
system.membus.snoop_fanout::overflows               0      0.00%    100.00% # Request fanout histogram
system.membus.snoop_fanout::min_value               0                       # Request fanout histogram
system.membus.snoop_fanout::max_value               0                       # Request fanout histogram
system.membus.snoop_fanout::total               19871                       # Request fanout histogram
system.membus.reqLayer0.occupancy            28450500                       # Layer occupancy (ticks)
system.membus.reqLayer0.utilization               2.7                       # Layer utilization (%)
system.membus.respLayer1.occupancy           97945000                       # Layer occupancy (ticks)
system.membus.respLayer1.utilization              9.4                       # Layer utilization (%)
system.membus.power_state.pwrStateResidencyTicks::UNDEFINED   1044414500                       # Cumulative time (in ticks) in various power states
system.tol2bus.trans_dist::ReadResp              2378                       # Transaction distribution
system.tol2bus.trans_dist::WritebackDirty        17452                       # Transaction distribution
system.tol2bus.trans_dist::WritebackClean          912                       # Transaction distribution
system.tol2bus.trans_dist::CleanEvict             396                       # Transaction distribution
system.tol2bus.trans_dist::ReadExReq            17094                       # Transaction distribution
system.tol2bus.trans_dist::ReadExResp           17094                       # Transaction distribution
system.tol2bus.trans_dist::ReadCleanReq          1780                       # Transaction distribution
system.tol2bus.trans_dist::ReadSharedReq          599                       # Transaction distribution
system.tol2bus.trans_dist::InvalidateReq         1179                       # Transaction distribution
system.tol2bus.trans_dist::InvalidateResp         1179                       # Transaction distribution
system.tol2bus.pkt_count_system.cpu.icache.mem_side::system.l2.cpu_side         4471                       # Packet count per connected master and slave (bytes)
system.tol2bus.pkt_count_system.cpu.dcache.mem_side::system.l2.cpu_side        55592                       # Packet count per connected master and slave (bytes)
system.tol2bus.pkt_count::total                 60063                       # Packet count per connected master and slave (bytes)
system.tol2bus.pkt_size_system.cpu.icache.mem_side::system.l2.cpu_side       172224                       # Cumulative packet size per connected master and slave (bytes)
system.tol2bus.pkt_size_system.cpu.dcache.mem_side::system.l2.cpu_side      2249280                       # Cumulative packet size per connected master and slave (bytes)
system.tol2bus.pkt_size::total                2421504                       # Cumulative packet size per connected master and slave (bytes)
system.tol2bus.snoops                               0                       # Total snoops (count)
system.tol2bus.snoopTraffic                         0                       # Total snoop traffic (bytes)
system.tol2bus.snoop_fanout::samples            20652                       # Request fanout histogram
system.tol2bus.snoop_fanout::mean            0.000048                       # Request fanout histogram
system.tol2bus.snoop_fanout::stdev           0.006959                       # Request fanout histogram
system.tol2bus.snoop_fanout::underflows             0      0.00%      0.00% # Request fanout histogram
system.tol2bus.snoop_fanout::0                  20651    100.00%    100.00% # Request fanout histogram
system.tol2bus.snoop_fanout::1                      1      0.00%    100.00% # Request fanout histogram
system.tol2bus.snoop_fanout::2                      0      0.00%    100.00% # Request fanout histogram
system.tol2bus.snoop_fanout::overflows              0      0.00%    100.00% # Request fanout histogram
system.tol2bus.snoop_fanout::min_value              0                       # Request fanout histogram
system.tol2bus.snoop_fanout::max_value              1                       # Request fanout histogram
system.tol2bus.snoop_fanout::total              20652                       # Request fanout histogram
system.tol2bus.reqLayer0.occupancy           38070000                       # Layer occupancy (ticks)
system.tol2bus.reqLayer0.utilization              3.6                       # Layer utilization (%)
system.tol2bus.respLayer1.occupancy          27129998                       # Layer occupancy (ticks)
system.tol2bus.respLayer1.utilization             2.6                       # Layer utilization (%)
system.tol2bus.respLayer0.occupancy           2668500                       # Layer occupancy (ticks)
system.tol2bus.respLayer0.utilization             0.3                       # Layer utilization (%)
system.tol2bus.power_state.pwrStateResidencyTicks::UNDEFINED   1044414500                       # Cumulative time (in ticks) in various power states
system.voltage_domain.voltage                       1                       # Voltage in Volts
system.clk_domain.clock                          1000                       # Clock period in ticks
system.l2.demand_hits::.cpu.inst                  408                       # number of demand (read+write) hits
system.l2.demand_hits::.cpu.data                  372                       # number of demand (read+write) hits
system.l2.demand_hits::total                      780                       # number of demand (read+write) hits
system.l2.overall_hits::.cpu.inst                 408                       # number of overall hits
system.l2.overall_hits::.cpu.data                 372                       # number of overall hits
system.l2.overall_hits::total                     780                       # number of overall hits
system.l2.demand_misses::.cpu.inst               1372                       # number of demand (read+write) misses
system.l2.demand_misses::.cpu.data              17321                       # number of demand (read+write) misses
system.l2.demand_misses::total                  18693                       # number of demand (read+write) misses
system.l2.overall_misses::.cpu.inst              1372                       # number of overall misses
system.l2.overall_misses::.cpu.data             17321                       # number of overall misses
system.l2.overall_misses::total                 18693                       # number of overall misses
system.l2.demand_miss_latency::.cpu.inst    107341000                       # number of demand (read+write) miss cycles
system.l2.demand_miss_latency::.cpu.data   1291637500                       # number of demand (read+write) miss cycles
system.l2.demand_miss_latency::total       1398978500                       # number of demand (read+write) miss cycles
system.l2.overall_miss_latency::.cpu.inst    107341000                       # number of overall miss cycles
system.l2.overall_miss_latency::.cpu.data   1291637500                       # number of overall miss cycles
system.l2.overall_miss_latency::total      1398978500                       # number of overall miss cycles
system.l2.demand_accesses::.cpu.inst             1780                       # number of demand (read+write) accesses
system.l2.demand_accesses::.cpu.data            17693                       # number of demand (read+write) accesses
system.l2.demand_accesses::total                19473                       # number of demand (read+write) accesses
system.l2.overall_accesses::.cpu.inst            1780                       # number of overall (read+write) accesses
system.l2.overall_accesses::.cpu.data           17693                       # number of overall (read+write) accesses
system.l2.overall_accesses::total               19473                       # number of overall (read+write) accesses
system.l2.demand_miss_rate::.cpu.inst        0.770787                       # miss rate for demand accesses
system.l2.demand_miss_rate::.cpu.data        0.978975                       # miss rate for demand accesses
system.l2.demand_miss_rate::total            0.959945                       # miss rate for demand accesses
system.l2.overall_miss_rate::.cpu.inst       0.770787                       # miss rate for overall accesses
system.l2.overall_miss_rate::.cpu.data       0.978975                       # miss rate for overall accesses
system.l2.overall_miss_rate::total           0.959945                       # miss rate for overall accesses
system.l2.demand_avg_miss_latency::.cpu.inst 78236.880466                       # average overall miss latency
system.l2.demand_avg_miss_latency::.cpu.data 74570.607933                       # average overall miss latency
system.l2.demand_avg_miss_latency::total 74839.699353                       # average overall miss latency
system.l2.overall_avg_miss_latency::.cpu.inst 78236.880466                       # average overall miss latency
system.l2.overall_avg_miss_latency::.cpu.data 74570.607933                       # average overall miss latency
system.l2.overall_avg_miss_latency::total 74839.699353                       # average overall miss latency
system.l2.blocked_cycles::no_mshrs                  0                       # number of cycles access was blocked
system.l2.blocked_cycles::no_targets                0                       # number of cycles access was blocked
system.l2.blocked::no_mshrs                         0                       # number of cycles access was blocked
system.l2.blocked::no_targets                       0                       # number of cycles access was blocked
system.l2.avg_blocked_cycles::no_mshrs            nan                       # average number of cycles each access was blocked
system.l2.avg_blocked_cycles::no_targets          nan                       # average number of cycles each access was blocked
system.l2.demand_mshr_misses::.cpu.inst          1372                       # number of demand (read+write) MSHR misses
system.l2.demand_mshr_misses::.cpu.data         17321                       # number of demand (read+write) MSHR misses
system.l2.demand_mshr_misses::total             18693                       # number of demand (read+write) MSHR misses
system.l2.overall_mshr_misses::.cpu.inst         1372                       # number of overall MSHR misses
system.l2.overall_mshr_misses::.cpu.data        17321                       # number of overall MSHR misses
system.l2.overall_mshr_misses::total            18693                       # number of overall MSHR misses
system.l2.demand_mshr_miss_latency::.cpu.inst     93631000                       # number of demand (read+write) MSHR miss cycles
system.l2.demand_mshr_miss_latency::.cpu.data   1118427500                       # number of demand (read+write) MSHR miss cycles
system.l2.demand_mshr_miss_latency::total   1212058500                       # number of demand (read+write) MSHR miss cycles
system.l2.overall_mshr_miss_latency::.cpu.inst     93631000                       # number of overall MSHR miss cycles
system.l2.overall_mshr_miss_latency::.cpu.data   1118427500                       # number of overall MSHR miss cycles
system.l2.overall_mshr_miss_latency::total   1212058500                       # number of overall MSHR miss cycles
system.l2.demand_mshr_miss_rate::.cpu.inst     0.770787                       # mshr miss rate for demand accesses
system.l2.demand_mshr_miss_rate::.cpu.data     0.978975                       # mshr miss rate for demand accesses
system.l2.demand_mshr_miss_rate::total       0.959945                       # mshr miss rate for demand accesses
system.l2.overall_mshr_miss_rate::.cpu.inst     0.770787                       # mshr miss rate for overall accesses
system.l2.overall_mshr_miss_rate::.cpu.data     0.978975                       # mshr miss rate for overall accesses
system.l2.overall_mshr_miss_rate::total      0.959945                       # mshr miss rate for overall accesses
system.l2.demand_avg_mshr_miss_latency::.cpu.inst 68244.169096                       # average overall mshr miss latency
system.l2.demand_avg_mshr_miss_latency::.cpu.data 64570.607933                       # average overall mshr miss latency
system.l2.demand_avg_mshr_miss_latency::total 64840.234312                       # average overall mshr miss latency
system.l2.overall_avg_mshr_miss_latency::.cpu.inst 68244.169096                       # average overall mshr miss latency
system.l2.overall_avg_mshr_miss_latency::.cpu.data 64570.607933                       # average overall mshr miss latency
system.l2.overall_avg_mshr_miss_latency::total 64840.234312                       # average overall mshr miss latency
system.l2.replacements                              0                       # number of replacements
system.l2.WritebackDirty_hits::.writebacks        17452                       # number of WritebackDirty hits
system.l2.WritebackDirty_hits::total            17452                       # number of WritebackDirty hits
system.l2.WritebackDirty_accesses::.writebacks        17452                       # number of WritebackDirty accesses(hits+misses)
system.l2.WritebackDirty_accesses::total        17452                       # number of WritebackDirty accesses(hits+misses)
system.l2.WritebackClean_hits::.writebacks          911                       # number of WritebackClean hits
system.l2.WritebackClean_hits::total              911                       # number of WritebackClean hits
system.l2.WritebackClean_accesses::.writebacks          911                       # number of WritebackClean accesses(hits+misses)
system.l2.WritebackClean_accesses::total          911                       # number of WritebackClean accesses(hits+misses)
system.l2.ReadExReq_hits::.cpu.data               132                       # number of ReadExReq hits
system.l2.ReadExReq_hits::total                   132                       # number of ReadExReq hits
system.l2.ReadExReq_misses::.cpu.data           16962                       # number of ReadExReq misses
system.l2.ReadExReq_misses::total               16962                       # number of ReadExReq misses
system.l2.ReadExReq_miss_latency::.cpu.data   1261724500                       # number of ReadExReq miss cycles
system.l2.ReadExReq_miss_latency::total    1261724500                       # number of ReadExReq miss cycles
system.l2.ReadExReq_accesses::.cpu.data         17094                       # number of ReadExReq accesses(hits+misses)
system.l2.ReadExReq_accesses::total             17094                       # number of ReadExReq accesses(hits+misses)
system.l2.ReadExReq_miss_rate::.cpu.data     0.992278                       # miss rate for ReadExReq accesses
system.l2.ReadExReq_miss_rate::total         0.992278                       # miss rate for ReadExReq accesses
system.l2.ReadExReq_avg_miss_latency::.cpu.data 74385.361396                       # average ReadExReq miss latency
system.l2.ReadExReq_avg_miss_latency::total 74385.361396                       # average ReadExReq miss latency
system.l2.ReadExReq_mshr_misses::.cpu.data        16962                       # number of ReadExReq MSHR misses
system.l2.ReadExReq_mshr_misses::total          16962                       # number of ReadExReq MSHR misses
system.l2.ReadExReq_mshr_miss_latency::.cpu.data   1092104500                       # number of ReadExReq MSHR miss cycles
system.l2.ReadExReq_mshr_miss_latency::total   1092104500                       # number of ReadExReq MSHR miss cycles
system.l2.ReadExReq_mshr_miss_rate::.cpu.data     0.992278                       # mshr miss rate for ReadExReq accesses
system.l2.ReadExReq_mshr_miss_rate::total     0.992278                       # mshr miss rate for ReadExReq accesses
system.l2.ReadExReq_avg_mshr_miss_latency::.cpu.data 64385.361396                       # average ReadExReq mshr miss latency
system.l2.ReadExReq_avg_mshr_miss_latency::total 64385.361396                       # average ReadExReq mshr miss latency
system.l2.ReadCleanReq_hits::.cpu.inst            408                       # number of ReadCleanReq hits
system.l2.ReadCleanReq_hits::total                408                       # number of ReadCleanReq hits
system.l2.ReadCleanReq_misses::.cpu.inst         1372                       # number of ReadCleanReq misses
system.l2.ReadCleanReq_misses::total             1372                       # number of ReadCleanReq misses
system.l2.ReadCleanReq_miss_latency::.cpu.inst    107341000                       # number of ReadCleanReq miss cycles
system.l2.ReadCleanReq_miss_latency::total    107341000                       # number of ReadCleanReq miss cycles
system.l2.ReadCleanReq_accesses::.cpu.inst         1780                       # number of ReadCleanReq accesses(hits+misses)
system.l2.ReadCleanReq_accesses::total           1780                       # number of ReadCleanReq accesses(hits+misses)
system.l2.ReadCleanReq_miss_rate::.cpu.inst     0.770787                       # miss rate for ReadCleanReq accesses
system.l2.ReadCleanReq_miss_rate::total      0.770787                       # miss rate for ReadCleanReq accesses
system.l2.ReadCleanReq_avg_miss_latency::.cpu.inst 78236.880466                       # average ReadCleanReq miss latency
system.l2.ReadCleanReq_avg_miss_latency::total 78236.880466                       # average ReadCleanReq miss latency
system.l2.ReadCleanReq_mshr_misses::.cpu.inst         1372                       # number of ReadCleanReq MSHR misses
system.l2.ReadCleanReq_mshr_misses::total         1372                       # number of ReadCleanReq MSHR misses
system.l2.ReadCleanReq_mshr_miss_latency::.cpu.inst     93631000                       # number of ReadCleanReq MSHR miss cycles
system.l2.ReadCleanReq_mshr_miss_latency::total     93631000                       # number of ReadCleanReq MSHR miss cycles
system.l2.ReadCleanReq_mshr_miss_rate::.cpu.inst     0.770787                       # mshr miss rate for ReadCleanReq accesses
system.l2.ReadCleanReq_mshr_miss_rate::total     0.770787                       # mshr miss rate for ReadCleanReq accesses
system.l2.ReadCleanReq_avg_mshr_miss_latency::.cpu.inst 68244.169096                       # average ReadCleanReq mshr miss latency
system.l2.ReadCleanReq_avg_mshr_miss_latency::total 68244.169096                       # average ReadCleanReq mshr miss latency
[...]
system.cpu.dcache.overall_miss_latency::total   8573141984                       # number of overall miss cycles
system.cpu.dcache.demand_accesses::.cpu.data       736973                       # number of demand (read+write) accesses
system.cpu.dcache.demand_accesses::total       736973                       # number of demand (read+write) accesses
system.cpu.dcache.overall_accesses::.cpu.data       737337                       # number of overall (read+write) accesses
system.cpu.dcache.overall_accesses::total       737337                       # number of overall (read+write) accesses
system.cpu.dcache.demand_miss_rate::.cpu.data     0.187479                       # miss rate for demand accesses
system.cpu.dcache.demand_miss_rate::total     0.187479                       # miss rate for demand accesses
system.cpu.dcache.overall_miss_rate::.cpu.data     0.187405                       # miss rate for overall accesses
system.cpu.dcache.overall_miss_rate::total     0.187405                       # miss rate for overall accesses
system.cpu.dcache.demand_avg_miss_latency::.cpu.data 62049.128837                       # average overall miss latency
system.cpu.dcache.demand_avg_miss_latency::total 62049.128837                       # average overall miss latency
system.cpu.dcache.overall_avg_miss_latency::.cpu.data 62042.842243                       # average overall miss latency
system.cpu.dcache.overall_avg_miss_latency::total 62042.842243                       # average overall miss latency
system.cpu.dcache.blocked_cycles::no_mshrs       567659                       # number of cycles access was blocked
system.cpu.dcache.blocked_cycles::no_targets            0                       # number of cycles access was blocked
system.cpu.dcache.blocked::no_mshrs             16111                       # number of cycles access was blocked
system.cpu.dcache.blocked::no_targets               0                       # number of cycles access was blocked
system.cpu.dcache.avg_blocked_cycles::no_mshrs    35.234250                       # average number of cycles each access was blocked
system.cpu.dcache.avg_blocked_cycles::no_targets          nan                       # average number of cycles each access was blocked
system.cpu.dcache.writebacks::.writebacks        17452                       # number of writebacks
system.cpu.dcache.writebacks::total             17452                       # number of writebacks
system.cpu.dcache.demand_mshr_hits::.cpu.data       119303                       # number of demand (read+write) MSHR hits
system.cpu.dcache.demand_mshr_hits::total       119303                       # number of demand (read+write) MSHR hits
system.cpu.dcache.overall_mshr_hits::.cpu.data       119303                       # number of overall MSHR hits
system.cpu.dcache.overall_mshr_hits::total       119303                       # number of overall MSHR hits
system.cpu.dcache.demand_mshr_misses::.cpu.data        18864                       # number of demand (read+write) MSHR misses
system.cpu.dcache.demand_mshr_misses::total        18864                       # number of demand (read+write) MSHR misses
system.cpu.dcache.overall_mshr_misses::.cpu.data        18869                       # number of overall MSHR misses
system.cpu.dcache.overall_mshr_misses::total        18869                       # number of overall MSHR misses
system.cpu.dcache.demand_mshr_miss_latency::.cpu.data   1366428574                       # number of demand (read+write) MSHR miss cycles
system.cpu.dcache.demand_mshr_miss_latency::total   1366428574                       # number of demand (read+write) MSHR miss cycles
system.cpu.dcache.overall_mshr_miss_latency::.cpu.data   1366724074                       # number of overall MSHR miss cycles
system.cpu.dcache.overall_mshr_miss_latency::total   1366724074                       # number of overall MSHR miss cycles
system.cpu.dcache.demand_mshr_miss_rate::.cpu.data     0.025597                       # mshr miss rate for demand accesses
system.cpu.dcache.demand_mshr_miss_rate::total     0.025597                       # mshr miss rate for demand accesses
system.cpu.dcache.overall_mshr_miss_rate::.cpu.data     0.025591                       # mshr miss rate for overall accesses
system.cpu.dcache.overall_mshr_miss_rate::total     0.025591                       # mshr miss rate for overall accesses
system.cpu.dcache.demand_avg_mshr_miss_latency::.cpu.data 72435.781064                       # average overall mshr miss latency
system.cpu.dcache.demand_avg_mshr_miss_latency::total 72435.781064                       # average overall mshr miss latency
system.cpu.dcache.overall_avg_mshr_miss_latency::.cpu.data 72432.247284                       # average overall mshr miss latency
system.cpu.dcache.overall_avg_mshr_miss_latency::total 72432.247284                       # average overall mshr miss latency
system.cpu.dcache.replacements                  17848                       # number of replacements
system.cpu.dcache.ReadReq_hits::.cpu.data       522071                       # number of ReadReq hits
system.cpu.dcache.ReadReq_hits::total          522071                       # number of ReadReq hits
system.cpu.dcache.ReadReq_misses::.cpu.data         1815                       # number of ReadReq misses
system.cpu.dcache.ReadReq_misses::total          1815                       # number of ReadReq misses
system.cpu.dcache.ReadReq_miss_latency::.cpu.data    110578500                       # number of ReadReq miss cycles
system.cpu.dcache.ReadReq_miss_latency::total    110578500                       # number of ReadReq miss cycles
system.cpu.dcache.ReadReq_accesses::.cpu.data       523886                       # number of ReadReq accesses(hits+misses)
system.cpu.dcache.ReadReq_accesses::total       523886                       # number of ReadReq accesses(hits+misses)
system.cpu.dcache.ReadReq_miss_rate::.cpu.data     0.003464                       # miss rate for ReadReq accesses
system.cpu.dcache.ReadReq_miss_rate::total     0.003464                       # miss rate for ReadReq accesses
system.cpu.dcache.ReadReq_avg_miss_latency::.cpu.data 60924.793388                       # average ReadReq miss latency
system.cpu.dcache.ReadReq_avg_miss_latency::total 60924.793388                       # average ReadReq miss latency
system.cpu.dcache.ReadReq_mshr_hits::.cpu.data         1224                       # number of ReadReq MSHR hits
system.cpu.dcache.ReadReq_mshr_hits::total         1224                       # number of ReadReq MSHR hits
system.cpu.dcache.ReadReq_mshr_misses::.cpu.data          591                       # number of ReadReq MSHR misses
system.cpu.dcache.ReadReq_mshr_misses::total          591                       # number of ReadReq MSHR misses
system.cpu.dcache.ReadReq_mshr_miss_latency::.cpu.data     32872500                       # number of ReadReq MSHR miss cycles
system.cpu.dcache.ReadReq_mshr_miss_latency::total     32872500                       # number of ReadReq MSHR miss cycles
system.cpu.dcache.ReadReq_mshr_miss_rate::.cpu.data     0.001128                       # mshr miss rate for ReadReq accesses
system.cpu.dcache.ReadReq_mshr_miss_rate::total     0.001128                       # mshr miss rate for ReadReq accesses
system.cpu.dcache.ReadReq_avg_mshr_miss_latency::.cpu.data 55621.827411                       # average ReadReq mshr miss latency
system.cpu.dcache.ReadReq_avg_mshr_miss_latency::total 55621.827411                       # average ReadReq mshr miss latency
system.cpu.dcache.WriteReq_hits::.cpu.data        76643                       # number of WriteReq hits
system.cpu.dcache.WriteReq_hits::total          76643                       # number of WriteReq hits
system.cpu.dcache.WriteReq_misses::.cpu.data       135183                       # number of WriteReq misses
system.cpu.dcache.WriteReq_misses::total       135183                       # number of WriteReq misses
system.cpu.dcache.WriteReq_miss_latency::.cpu.data   8424774400                       # number of WriteReq miss cycles
system.cpu.dcache.WriteReq_miss_latency::total   8424774400                       # number of WriteReq miss cycles
system.cpu.dcache.WriteReq_accesses::.cpu.data       211826                       # number of WriteReq accesses(hits+misses)
system.cpu.dcache.WriteReq_accesses::total       211826                       # number of WriteReq accesses(hits+misses)
system.cpu.dcache.WriteReq_miss_rate::.cpu.data     0.638179                       # miss rate for WriteReq accesses
system.cpu.dcache.WriteReq_miss_rate::total     0.638179                       # miss rate for WriteReq accesses
system.cpu.dcache.WriteReq_avg_miss_latency::.cpu.data 62321.256371                       # average WriteReq miss latency
system.cpu.dcache.WriteReq_avg_miss_latency::total 62321.256371                       # average WriteReq miss latency
system.cpu.dcache.WriteReq_mshr_hits::.cpu.data       118079                       # number of WriteReq MSHR hits
system.cpu.dcache.WriteReq_mshr_hits::total       118079                       # number of WriteReq MSHR hits
system.cpu.dcache.WriteReq_mshr_misses::.cpu.data        17104                       # number of WriteReq MSHR misses
system.cpu.dcache.WriteReq_mshr_misses::total        17104                       # number of WriteReq MSHR misses
system.cpu.dcache.WriteReq_mshr_miss_latency::.cpu.data   1296935990                       # number of WriteReq MSHR miss cycles
system.cpu.dcache.WriteReq_mshr_miss_latency::total   1296935990                       # number of WriteReq MSHR miss cycles
system.cpu.dcache.WriteReq_mshr_miss_rate::.cpu.data     0.080746                       # mshr miss rate for WriteReq accesses
system.cpu.dcache.WriteReq_mshr_miss_rate::total     0.080746                       # mshr miss rate for WriteReq accesses
system.cpu.dcache.WriteReq_avg_mshr_miss_latency::.cpu.data 75826.472755                       # average WriteReq mshr miss latency
system.cpu.dcache.WriteReq_avg_mshr_miss_latency::total 75826.472755                       # average WriteReq mshr miss latency
system.cpu.dcache.SoftPFReq_hits::.cpu.data          350                       # number of SoftPFReq hits
system.cpu.dcache.SoftPFReq_hits::total           350                       # number of SoftPFReq hits
system.cpu.dcache.SoftPFReq_misses::.cpu.data           14                       # number of SoftPFReq misses
system.cpu.dcache.SoftPFReq_misses::total           14                       # number of SoftPFReq misses
system.cpu.dcache.SoftPFReq_accesses::.cpu.data          364                       # number of SoftPFReq accesses(hits+misses)
system.cpu.dcache.SoftPFReq_accesses::total          364                       # number of SoftPFReq accesses(hits+misses)
system.cpu.dcache.SoftPFReq_miss_rate::.cpu.data     0.038462                       # miss rate for SoftPFReq accesses
system.cpu.dcache.SoftPFReq_miss_rate::total     0.038462                       # miss rate for SoftPFReq accesses
system.cpu.dcache.SoftPFReq_mshr_misses::.cpu.data            5                       # number of SoftPFReq MSHR misses
system.cpu.dcache.SoftPFReq_mshr_misses::total            5                       # number of SoftPFReq MSHR misses
system.cpu.dcache.SoftPFReq_mshr_miss_latency::.cpu.data       295500                       # number of SoftPFReq MSHR miss cycles
system.cpu.dcache.SoftPFReq_mshr_miss_latency::total       295500                       # number of SoftPFReq MSHR miss cycles
system.cpu.dcache.SoftPFReq_mshr_miss_rate::.cpu.data     0.013736                       # mshr miss rate for SoftPFReq accesses
system.cpu.dcache.SoftPFReq_mshr_miss_rate::total     0.013736                       # mshr miss rate for SoftPFReq accesses
system.cpu.dcache.SoftPFReq_avg_mshr_miss_latency::.cpu.data        59100                       # average SoftPFReq mshr miss latency
system.cpu.dcache.SoftPFReq_avg_mshr_miss_latency::total        59100                       # average SoftPFReq mshr miss latency
system.cpu.dcache.WriteLineReq_hits::.cpu.data           92                       # number of WriteLineReq hits
system.cpu.dcache.WriteLineReq_hits::total           92                       # number of WriteLineReq hits
system.cpu.dcache.WriteLineReq_misses::.cpu.data         1169                       # number of WriteLineReq misses
system.cpu.dcache.WriteLineReq_misses::total         1169                       # number of WriteLineReq misses
system.cpu.dcache.WriteLineReq_miss_latency::.cpu.data     37789084                       # number of WriteLineReq miss cycles
system.cpu.dcache.WriteLineReq_miss_latency::total     37789084                       # number of WriteLineReq miss cycles
system.cpu.dcache.WriteLineReq_accesses::.cpu.data         1261                       # number of WriteLineReq accesses(hits+misses)
system.cpu.dcache.WriteLineReq_accesses::total         1261                       # number of WriteLineReq accesses(hits+misses)
system.cpu.dcache.WriteLineReq_miss_rate::.cpu.data     0.927042                       # miss rate for WriteLineReq accesses
system.cpu.dcache.WriteLineReq_miss_rate::total     0.927042                       # miss rate for WriteLineReq accesses
system.cpu.dcache.WriteLineReq_avg_miss_latency::.cpu.data 32325.991446                       # average WriteLineReq miss latency
system.cpu.dcache.WriteLineReq_avg_miss_latency::total 32325.991446                       # average WriteLineReq miss latency
system.cpu.dcache.WriteLineReq_mshr_misses::.cpu.data         1169                       # number of WriteLineReq MSHR misses
system.cpu.dcache.WriteLineReq_mshr_misses::total         1169                       # number of WriteLineReq MSHR misses
system.cpu.dcache.WriteLineReq_mshr_miss_latency::.cpu.data     36620084                       # number of WriteLineReq MSHR miss cycles
system.cpu.dcache.WriteLineReq_mshr_miss_latency::total     36620084                       # number of WriteLineReq MSHR miss cycles
system.cpu.dcache.WriteLineReq_mshr_miss_rate::.cpu.data     0.927042                       # mshr miss rate for WriteLineReq accesses
system.cpu.dcache.WriteLineReq_mshr_miss_rate::total     0.927042                       # mshr miss rate for WriteLineReq accesses
system.cpu.dcache.WriteLineReq_avg_mshr_miss_latency::.cpu.data 31325.991446                       # average WriteLineReq mshr miss latency
system.cpu.dcache.WriteLineReq_avg_mshr_miss_latency::total 31325.991446                       # average WriteLineReq mshr miss latency
system.cpu.dcache.LoadLockedReq_hits::.cpu.data          308                       # number of LoadLockedReq hits
system.cpu.dcache.LoadLockedReq_hits::total          308                       # number of LoadLockedReq hits
system.cpu.dcache.LoadLockedReq_misses::.cpu.data            6                       # number of LoadLockedReq misses
system.cpu.dcache.LoadLockedReq_misses::total            6                       # number of LoadLockedReq misses
system.cpu.dcache.LoadLockedReq_miss_latency::.cpu.data       256000                       # number of LoadLockedReq miss cycles
system.cpu.dcache.LoadLockedReq_miss_latency::total       256000                       # number of LoadLockedReq miss cycles
system.cpu.dcache.LoadLockedReq_accesses::.cpu.data          314                       # number of LoadLockedReq accesses(hits+misses)
system.cpu.dcache.LoadLockedReq_accesses::total          314                       # number of LoadLockedReq accesses(hits+misses)
system.cpu.dcache.LoadLockedReq_miss_rate::.cpu.data     0.019108                       # miss rate for LoadLockedReq accesses
system.cpu.dcache.LoadLockedReq_miss_rate::total     0.019108                       # miss rate for LoadLockedReq accesses
system.cpu.dcache.LoadLockedReq_avg_miss_latency::.cpu.data 42666.666667                       # average LoadLockedReq miss latency
system.cpu.dcache.LoadLockedReq_avg_miss_latency::total 42666.666667                       # average LoadLockedReq miss latency
system.cpu.dcache.LoadLockedReq_mshr_hits::.cpu.data            3                       # number of LoadLockedReq MSHR hits
system.cpu.dcache.LoadLockedReq_mshr_hits::total            3                       # number of LoadLockedReq MSHR hits
system.cpu.dcache.LoadLockedReq_mshr_misses::.cpu.data            3                       # number of LoadLockedReq MSHR misses
system.cpu.dcache.LoadLockedReq_mshr_misses::total            3                       # number of LoadLockedReq MSHR misses
system.cpu.dcache.LoadLockedReq_mshr_miss_latency::.cpu.data       211000                       # number of LoadLockedReq MSHR miss cycles
system.cpu.dcache.LoadLockedReq_mshr_miss_latency::total       211000                       # number of LoadLockedReq MSHR miss cycles
system.cpu.dcache.LoadLockedReq_mshr_miss_rate::.cpu.data     0.009554                       # mshr miss rate for LoadLockedReq accesses
system.cpu.dcache.LoadLockedReq_mshr_miss_rate::total     0.009554                       # mshr miss rate for LoadLockedReq accesses
system.cpu.dcache.LoadLockedReq_avg_mshr_miss_latency::.cpu.data 70333.333333                       # average LoadLockedReq mshr miss latency
system.cpu.dcache.LoadLockedReq_avg_mshr_miss_latency::total 70333.333333                       # average LoadLockedReq mshr miss latency
system.cpu.dcache.StoreCondReq_hits::.cpu.data          278                       # number of StoreCondReq hits
system.cpu.dcache.StoreCondReq_hits::total          278                       # number of StoreCondReq hits
system.cpu.dcache.StoreCondReq_accesses::.cpu.data          278                       # number of StoreCondReq accesses(hits+misses)
system.cpu.dcache.StoreCondReq_accesses::total          278                       # number of StoreCondReq accesses(hits+misses)
system.cpu.dcache.power_state.pwrStateResidencyTicks::UNDEFINED   1044414500                       # Cumulative time (in ticks) in various power states
system.cpu.dcache.tags.tagsinuse           818.225463                       # Cycle average of tags in use
system.cpu.dcache.tags.total_refs              618614                       # Total number of references to valid blocks.
system.cpu.dcache.tags.sampled_refs             18872                       # Sample count of references to valid blocks.
system.cpu.dcache.tags.avg_refs             32.779462                       # Average number of references to valid blocks.
system.cpu.dcache.tags.warmup_cycle            195500                       # Cycle when the warmup percentage was hit.
system.cpu.dcache.tags.occ_blocks::.cpu.data   818.225463                       # Average occupied blocks per requestor
system.cpu.dcache.tags.occ_percent::.cpu.data     0.799048                       # Average percentage of cache occupancy
system.cpu.dcache.tags.occ_percent::total     0.799048                       # Average percentage of cache occupancy
system.cpu.dcache.tags.occ_task_id_blocks::1024         1024                       # Occupied blocks per task id
system.cpu.dcache.tags.age_task_id_blocks_1024::0          239                       # Occupied blocks per task id
system.cpu.dcache.tags.age_task_id_blocks_1024::1          785                       # Occupied blocks per task id
system.cpu.dcache.tags.occ_task_id_percent::1024            1                       # Percentage of cache occupancy per task id
system.cpu.dcache.tags.tag_accesses           1494730                       # Number of tag accesses
system.cpu.dcache.tags.data_accesses          1494730                       # Number of data accesses
system.cpu.dcache.tags.power_state.pwrStateResidencyTicks::UNDEFINED   1044414500                       # Cumulative time (in ticks) in various power states
system.cpu.power_state.pwrStateResidencyTicks::ON   1044414500                       # Cumulative time (in ticks) in various power states

---------- End Simulation Statistics   ----------
