
---------- Begin Simulation Statistics ----------
final_tick                                 5172143500                       # Number of ticks from beginning of simulation (restored from checkpoints and never reset)
host_inst_rate                                 215613                       # Simulator instruction rate (inst/s)
host_mem_usage                                 877224                       # Number of bytes of host memory used
host_op_rate                                   245222                       # Simulator op (including micro ops) rate (op/s)
host_seconds                                    46.38                       # Real time elapsed on the host
host_tick_rate                              111517723                       # Simulator tick rate (ticks/s)
sim_freq                                 1000000000000                       # Frequency of simulated ticks
sim_insts                                    10000001                       # Number of instructions simulated
sim_ops                                      11373297                       # Number of ops (including micro ops) simulated
sim_seconds                                  0.005172                       # Number of seconds simulated
sim_ticks                                  5172143500                       # Number of ticks simulated
system.cpu.branchPred.BTBCorrect                    0                       # Number of correct BTB predictions (this stat may not work properly.
system.cpu.branchPred.BTBHitPct             98.560410                       # BTB Hit Percentage
system.cpu.branchPred.BTBHits                 1347992                       # Number of BTB hits
system.cpu.branchPred.BTBLookups              1367681                       # Number of BTB lookups
system.cpu.branchPred.RASInCorrect                 16                       # Number of incorrect RAS predictions.
system.cpu.branchPred.condIncorrect             46237                       # Number of conditional branches incorrect
system.cpu.branchPred.condPredicted           2426184                       # Number of conditional branches predicted
system.cpu.branchPred.indirectHits              27872                       # Number of indirect target hits.
system.cpu.branchPred.indirectLookups           30284                       # Number of indirect predictor lookups.
system.cpu.branchPred.indirectMisses             2412                       # Number of indirect misses.
system.cpu.branchPred.lookups                 2807302                       # Number of BP lookups
system.cpu.branchPred.usedRAS                  127976                       # Number of times the RAS was used to get a target.
system.cpu.branchPredindirectMispredicted          852                       # Number of mispredicted indirect branches.
system.cpu.cc_regfile_reads                   6021012                       # number of cc regfile reads
system.cpu.cc_regfile_writes                  6018318                       # number of cc regfile writes
system.cpu.commit.amos                              0                       # Number of atomic instructions committed
system.cpu.commit.branchMispredicts             39384                       # The number of times a branch was mispredicted
system.cpu.commit.branches                    2506891                       # Number of branches committed
system.cpu.commit.bw_lim_events                399354                       # number cycles where commit BW limit reached
system.cpu.commit.commitNonSpecStalls            5294                       # The number of times commit has been forced to stall to communicate backwards
system.cpu.commit.commitSquashedInsts          596199                       # The number of squashed insts skipped by commit
system.cpu.commit.committedInsts             10012014                       # Number of instructions committed
system.cpu.commit.committedOps               11385310                       # Number of ops (including micro ops) committed
system.cpu.commit.committed_per_cycle::samples      9416110                       # Number of insts commited each cycle
system.cpu.commit.committed_per_cycle::mean     1.209131                       # Number of insts commited each cycle
system.cpu.commit.committed_per_cycle::stdev     2.096934                       # Number of insts commited each cycle
system.cpu.commit.committed_per_cycle::underflows            0      0.00%      0.00% # Number of insts commited each cycle
system.cpu.commit.committed_per_cycle::0      5652043     60.03%     60.03% # Number of insts commited each cycle
system.cpu.commit.committed_per_cycle::1      1330371     14.13%     74.15% # Number of insts commited each cycle
system.cpu.commit.committed_per_cycle::2       900553      9.56%     83.72% # Number of insts commited each cycle
system.cpu.commit.committed_per_cycle::3       432749      4.60%     88.31% # Number of insts commited each cycle
system.cpu.commit.committed_per_cycle::4       161620      1.72%     90.03% # Number of insts commited each cycle
system.cpu.commit.committed_per_cycle::5       184194      1.96%     91.99% # Number of insts commited each cycle
system.cpu.commit.committed_per_cycle::6       293278      3.11%     95.10% # Number of insts commited each cycle
system.cpu.commit.committed_per_cycle::7        61948      0.66%     95.76% # Number of insts commited each cycle
system.cpu.commit.committed_per_cycle::8       399354      4.24%    100.00% # Number of insts commited each cycle
system.cpu.commit.committed_per_cycle::overflows            0      0.00%    100.00% # Number of insts commited each cycle
system.cpu.commit.committed_per_cycle::min_value            0                       # Number of insts commited each cycle
system.cpu.commit.committed_per_cycle::max_value            8                       # Number of insts commited each cycle
system.cpu.commit.committed_per_cycle::total      9416110                       # Number of insts commited each cycle
system.cpu.commit.fp_insts                          0                       # Number of committed floating point instructions.
system.cpu.commit.function_calls               116697                       # Number of function calls committed.
system.cpu.commit.int_insts                   9271243                       # Number of committed integer instructions.
system.cpu.commit.loads                       1741320                       # Number of loads committed
system.cpu.commit.membars                        5240                       # Number of memory barriers committed
system.cpu.commit.op_class_0::No_OpClass            5      0.00%      0.00% # Class of committed instruction
system.cpu.commit.op_class_0::IntAlu          8203252     72.05%     72.05% # Class of committed instruction
system.cpu.commit.op_class_0::IntMult           27722      0.24%     72.29% # Class of committed instruction
system.cpu.commit.op_class_0::IntDiv             1042      0.01%     72.30% # Class of committed instruction
system.cpu.commit.op_class_0::FloatAdd          86244      0.76%     73.06% # Class of committed instruction
system.cpu.commit.op_class_0::FloatCmp           5938      0.05%     73.11% # Class of committed instruction
system.cpu.commit.op_class_0::FloatCvt            506      0.00%     73.12% # Class of committed instruction
system.cpu.commit.op_class_0::FloatMult           719      0.01%     73.12% # Class of committed instruction
system.cpu.commit.op_class_0::FloatMultAcc        83053      0.73%     73.85% # Class of committed instruction
system.cpu.commit.op_class_0::FloatDiv             63      0.00%     73.85% # Class of committed instruction
system.cpu.commit.op_class_0::FloatMisc          5519      0.05%     73.90% # Class of committed instruction
system.cpu.commit.op_class_0::FloatSqrt          4214      0.04%     73.94% # Class of committed instruction
system.cpu.commit.op_class_0::SimdAdd              22      0.00%     73.94% # Class of committed instruction
system.cpu.commit.op_class_0::SimdAddAcc            0      0.00%     73.94% # Class of committed instruction
system.cpu.commit.op_class_0::SimdAlu              22      0.00%     73.94% # Class of committed instruction
system.cpu.commit.op_class_0::SimdCmp              20      0.00%     73.94% # Class of committed instruction
system.cpu.commit.op_class_0::SimdCvt              10      0.00%     73.94% # Class of committed instruction
system.cpu.commit.op_class_0::SimdMisc          28016      0.25%     74.19% # Class of committed instruction
system.cpu.commit.op_class_0::SimdMult              0      0.00%     74.19% # Class of committed instruction
system.cpu.commit.op_class_0::SimdMultAcc            0      0.00%     74.19% # Class of committed instruction
system.cpu.commit.op_class_0::SimdShift             0      0.00%     74.19% # Class of committed instruction
system.cpu.commit.op_class_0::SimdShiftAcc            0      0.00%     74.19% # Class of committed instruction
system.cpu.commit.op_class_0::SimdDiv               0      0.00%     74.19% # Class of committed instruction
system.cpu.commit.op_class_0::SimdSqrt              0      0.00%     74.19% # Class of committed instruction
system.cpu.commit.op_class_0::SimdFloatAdd            0      0.00%     74.19% # Class of committed instruction
system.cpu.commit.op_class_0::SimdFloatAlu            0      0.00%     74.19% # Class of committed instruction
system.cpu.commit.op_class_0::SimdFloatCmp            0      0.00%     74.19% # Class of committed instruction
system.cpu.commit.op_class_0::SimdFloatCvt            0      0.00%     74.19% # Class of committed instruction
system.cpu.commit.op_class_0::SimdFloatDiv            0      0.00%     74.19% # Class of committed instruction
system.cpu.commit.op_class_0::SimdFloatMisc            0      0.00%     74.19% # Class of committed instruction
system.cpu.commit.op_class_0::SimdFloatMult            0      0.00%     74.19% # Class of committed instruction
system.cpu.commit.op_class_0::SimdFloatMultAcc            0      0.00%     74.19% # Class of committed instruction
system.cpu.commit.op_class_0::SimdFloatSqrt            0      0.00%     74.19% # Class of committed instruction
system.cpu.commit.op_class_0::SimdReduceAdd            0      0.00%     74.19% # Class of committed instruction
system.cpu.commit.op_class_0::SimdReduceAlu            0      0.00%     74.19% # Class of committed instruction
system.cpu.commit.op_class_0::SimdReduceCmp            0      0.00%     74.19% # Class of committed instruction
system.cpu.commit.op_class_0::SimdFloatReduceAdd            0      0.00%     74.19% # Class of committed instruction
system.cpu.commit.op_class_0::SimdFloatReduceCmp            0      0.00%     74.19% # Class of committed instruction
system.cpu.commit.op_class_0::SimdAes               0      0.00%     74.19% # Class of committed instruction
system.cpu.commit.op_class_0::SimdAesMix            0      0.00%     74.19% # Class of committed instruction
system.cpu.commit.op_class_0::SimdSha1Hash            0      0.00%     74.19% # Class of committed instruction
system.cpu.commit.op_class_0::SimdSha1Hash2            0      0.00%     74.19% # Class of committed instruction
system.cpu.commit.op_class_0::SimdSha256Hash            0      0.00%     74.19% # Class of committed instruction
system.cpu.commit.op_class_0::SimdSha256Hash2            0      0.00%     74.19% # Class of committed instruction
system.cpu.commit.op_class_0::SimdShaSigma2            0      0.00%     74.19% # Class of committed instruction
system.cpu.commit.op_class_0::SimdShaSigma3            0      0.00%     74.19% # Class of committed instruction
system.cpu.commit.op_class_0::SimdPredAlu            0      0.00%     74.19% # Class of committed instruction
system.cpu.commit.op_class_0::MemRead         1741320     15.29%     89.48% # Class of committed instruction
system.cpu.commit.op_class_0::MemWrite        1197623     10.52%    100.00% # Class of committed instruction
system.cpu.commit.op_class_0::FloatMemRead            0      0.00%    100.00% # Class of committed instruction
system.cpu.commit.op_class_0::FloatMemWrite            0      0.00%    100.00% # Class of committed instruction
system.cpu.commit.op_class_0::IprAccess             0      0.00%    100.00% # Class of committed instruction
system.cpu.commit.op_class_0::InstPrefetch            0      0.00%    100.00% # Class of committed instruction
system.cpu.commit.op_class_0::total          11385310                       # Class of committed instruction
system.cpu.commit.refs                        2938943                       # Number of memory references committed
system.cpu.commit.swp_count                         0                       # Number of s/w prefetches committed
system.cpu.commit.vec_insts                    580319                       # Number of committed Vector instructions.
system.cpu.committedInsts                    10000001                       # Number of Instructions Simulated
system.cpu.committedOps                      11373297                       # Number of Ops (including micro ops) Simulated
system.cpu.cpi                               1.034429                       # CPI: Cycles Per Instruction
system.cpu.cpi_total                         1.034429                       # CPI: Total CPI of All Threads
system.cpu.decode.BlockedCycles                731868                       # Number of cycles decode is blocked
system.cpu.decode.BranchMispred                  6888                       # Number of times decode detected a branch misprediction
system.cpu.decode.BranchResolved              1324710                       # Number of times decode resolved a branch
system.cpu.decode.DecodedInsts               12262445                       # Number of instructions handled by decode
system.cpu.decode.IdleCycles                  6187464                       # Number of cycles decode is idle
system.cpu.decode.RunCycles                   2473233                       # Number of cycles decode is running
system.cpu.decode.SquashCycles                  39600                       # Number of cycles decode is squashing
system.cpu.decode.SquashedInsts                 22279                       # Number of squashed instructions handled by decode
system.cpu.decode.UnblockCycles                 81259                       # Number of cycles decode is unblocking
system.cpu.dtb.accesses                             0                       # DTB accesses
system.cpu.dtb.align_faults                         0                       # Number of TLB faults due to alignment restrictions
system.cpu.dtb.domain_faults                        0                       # Number of TLB faults due to domain restrictions
system.cpu.dtb.flush_entries                        0                       # Number of entries that have been flushed from TLB
system.cpu.dtb.flush_tlb                            0                       # Number of times complete TLB was flushed
system.cpu.dtb.flush_tlb_asid                       0                       # Number of times TLB was flushed by ASID
system.cpu.dtb.flush_tlb_mva                        0                       # Number of times TLB was flushed by MVA
system.cpu.dtb.flush_tlb_mva_asid                   0                       # Number of times TLB was flushed by MVA & ASID
system.cpu.dtb.hits                                 0                       # DTB hits
system.cpu.dtb.inst_accesses                        0                       # ITB inst accesses
system.cpu.dtb.inst_hits                            0                       # ITB inst hits
system.cpu.dtb.inst_misses                          0                       # ITB inst misses
system.cpu.dtb.misses                               0                       # DTB misses
system.cpu.dtb.perms_faults                         0                       # Number of TLB faults due to permissions restrictions
system.cpu.dtb.prefetch_faults                      0                       # Number of TLB faults due to prefetch
system.cpu.dtb.read_accesses                        0                       # DTB read accesses
system.cpu.dtb.read_hits                            0                       # DTB read hits
system.cpu.dtb.read_misses                          0                       # DTB read misses
system.cpu.dtb.stage2_mmu.stage2_tlb.accesses            0                       # DTB accesses
system.cpu.dtb.stage2_mmu.stage2_tlb.align_faults            0                       # Number of TLB faults due to alignment restrictions
system.cpu.dtb.stage2_mmu.stage2_tlb.domain_faults            0                       # Number of TLB faults due to domain restrictions
system.cpu.dtb.stage2_mmu.stage2_tlb.flush_entries            0                       # Number of entries that have been flushed from TLB
system.cpu.dtb.stage2_mmu.stage2_tlb.flush_tlb            0                       # Number of times complete TLB was flushed
system.cpu.dtb.stage2_mmu.stage2_tlb.flush_tlb_asid            0                       # Number of times TLB was flushed by ASID
system.cpu.dtb.stage2_mmu.stage2_tlb.flush_tlb_mva            0                       # Number of times TLB was flushed by MVA
system.cpu.dtb.stage2_mmu.stage2_tlb.flush_tlb_mva_asid            0                       # Number of times TLB was flushed by MVA & ASID
system.cpu.dtb.stage2_mmu.stage2_tlb.hits            0                       # DTB hits
system.cpu.dtb.stage2_mmu.stage2_tlb.inst_accesses            0                       # ITB inst accesses
system.cpu.dtb.stage2_mmu.stage2_tlb.inst_hits            0                       # ITB inst hits
system.cpu.dtb.stage2_mmu.stage2_tlb.inst_misses            0                       # ITB inst misses
system.cpu.dtb.stage2_mmu.stage2_tlb.misses            0                       # DTB misses
system.cpu.dtb.stage2_mmu.stage2_tlb.perms_faults            0                       # Number of TLB faults due to permissions restrictions
system.cpu.dtb.stage2_mmu.stage2_tlb.prefetch_faults            0                       # Number of TLB faults due to prefetch
system.cpu.dtb.stage2_mmu.stage2_tlb.read_accesses            0                       # DTB read accesses
system.cpu.dtb.stage2_mmu.stage2_tlb.read_hits            0                       # DTB read hits
system.cpu.dtb.stage2_mmu.stage2_tlb.read_misses            0                       # DTB read misses
system.cpu.dtb.stage2_mmu.stage2_tlb.walker.walkRequestOrigin_Requested::Data            0                       # Table walker requests started/completed, data/inst
system.cpu.dtb.stage2_mmu.stage2_tlb.walker.walkRequestOrigin_Requested::Inst            0                       # Table walker requests started/completed, data/inst
system.cpu.dtb.stage2_mmu.stage2_tlb.walker.walkRequestOrigin_Requested::total            0                       # Table walker requests started/completed, data/inst
system.cpu.dtb.stage2_mmu.stage2_tlb.walker.walkRequestOrigin_Completed::Data            0                       # Table walker requests started/completed, data/inst
system.cpu.dtb.stage2_mmu.stage2_tlb.walker.walkRequestOrigin_Completed::Inst            0                       # Table walker requests started/completed, data/inst
system.cpu.dtb.stage2_mmu.stage2_tlb.walker.walkRequestOrigin_Completed::total            0                       # Table walker requests started/completed, data/inst
system.cpu.dtb.stage2_mmu.stage2_tlb.walker.walkRequestOrigin::total            0                       # Table walker requests started/completed, data/inst
system.cpu.dtb.stage2_mmu.stage2_tlb.walker.walks            0                       # Table walker walks requested
system.cpu.dtb.stage2_mmu.stage2_tlb.write_accesses            0                       # DTB write accesses
system.cpu.dtb.stage2_mmu.stage2_tlb.write_hits            0                       # DTB write hits
system.cpu.dtb.stage2_mmu.stage2_tlb.write_misses            0                       # DTB write misses
system.cpu.dtb.walker.walkRequestOrigin_Requested::Data            0                       # Table walker requests started/completed, data/inst
system.cpu.dtb.walker.walkRequestOrigin_Requested::Inst            0                       # Table walker requests started/completed, data/inst
system.cpu.dtb.walker.walkRequestOrigin_Requested::total            0                       # Table walker requests started/completed, data/inst
system.cpu.dtb.walker.walkRequestOrigin_Completed::Data            0                       # Table walker requests started/completed, data/inst
system.cpu.dtb.walker.walkRequestOrigin_Completed::Inst            0                       # Table walker requests started/completed, data/inst
system.cpu.dtb.walker.walkRequestOrigin_Completed::total            0                       # Table walker requests started/completed, data/inst
system.cpu.dtb.walker.walkRequestOrigin::total            0                       # Table walker requests started/completed, data/inst
system.cpu.dtb.walker.walks                         0                       # Table walker walks requested
system.cpu.dtb.write_accesses                       0                       # DTB write accesses
system.cpu.dtb.write_hits                           0                       # DTB write hits
system.cpu.dtb.write_misses                         0                       # DTB write misses
system.cpu.fetch.Branches                     2807302                       # Number of branches that fetch encountered
system.cpu.fetch.CacheLines                   1711260                       # Number of cache lines fetched
system.cpu.fetch.Cycles                       3076710                       # Number of cycles fetch has run and was not squashing or blocked
system.cpu.fetch.IcacheSquashes                 26262                       # Number of outstanding Icache misses that were squashed
system.cpu.fetch.IcacheWaitRetryStallCycles          136                       # Number of stall cycles due to full MSHR
system.cpu.fetch.Insts                       11069866                       # Number of instructions fetch has processed
system.cpu.fetch.MiscStallCycles                   24                       # Number of cycles fetch has spent waiting on interrupts, or bad addresses, or out of MSHRs
system.cpu.fetch.SquashCycles                   92906                       # Number of cycles fetch has spent squashing
system.cpu.fetch.branchRate                  0.271387                       # Number of branch fetches per cycle
system.cpu.fetch.icacheStallCycles            6390101                       # Number of cycles fetch is stalled on an Icache miss
system.cpu.fetch.predictedBranches            1503840                       # Number of branches that fetch has predicted taken
system.cpu.fetch.rate                        1.070143                       # Number of inst fetches per cycle
system.cpu.fetch.rateDist::samples            9513424                       # Number of instructions fetched each cycle (Total)
system.cpu.fetch.rateDist::mean              1.314422                       # Number of instructions fetched each cycle (Total)
system.cpu.fetch.rateDist::stdev             2.453419                       # Number of instructions fetched each cycle (Total)
system.cpu.fetch.rateDist::underflows               0      0.00%      0.00% # Number of instructions fetched each cycle (Total)
system.cpu.fetch.rateDist::0                  6855523     72.06%     72.06% # Number of instructions fetched each cycle (Total)
system.cpu.fetch.rateDist::1                   156381      1.64%     73.71% # Number of instructions fetched each cycle (Total)
system.cpu.fetch.rateDist::2                   588882      6.19%     79.90% # Number of instructions fetched each cycle (Total)
system.cpu.fetch.rateDist::3                   161204      1.69%     81.59% # Number of instructions fetched each cycle (Total)
system.cpu.fetch.rateDist::4                   492081      5.17%     86.76% # Number of instructions fetched each cycle (Total)
system.cpu.fetch.rateDist::5                   152780      1.61%     88.37% # Number of instructions fetched each cycle (Total)
system.cpu.fetch.rateDist::6                   346358      3.64%     92.01% # Number of instructions fetched each cycle (Total)
system.cpu.fetch.rateDist::7                   205199      2.16%     94.17% # Number of instructions fetched each cycle (Total)
system.cpu.fetch.rateDist::8                   555016      5.83%    100.00% # Number of instructions fetched each cycle (Total)
system.cpu.fetch.rateDist::overflows                0      0.00%    100.00% # Number of instructions fetched each cycle (Total)
system.cpu.fetch.rateDist::min_value                0                       # Number of instructions fetched each cycle (Total)
system.cpu.fetch.rateDist::max_value                8                       # Number of instructions fetched each cycle (Total)
system.cpu.fetch.rateDist::total              9513424                       # Number of instructions fetched each cycle (Total)
system.cpu.idleCycles                          830865                       # Total number of cycles that the CPU has spent unscheduled due to idling
system.cpu.iew.branchMispredicts                48546                       # Number of branch mispredicts detected at execute
system.cpu.iew.exec_branches                  2563154                       # Number of branches executed
system.cpu.iew.exec_nop                         12803                       # number of nop insts executed
system.cpu.iew.exec_rate                     1.130899                       # Inst execution rate
system.cpu.iew.exec_refs                      3050187                       # number of memory reference insts executed
system.cpu.iew.exec_stores                    1213808                       # Number of stores executed
system.cpu.iew.exec_swp                             0                       # number of swp insts executed
system.cpu.iew.iewBlockCycles                   99219                       # Number of cycles IEW is blocking
system.cpu.iew.iewDispLoadInsts               1844382                       # Number of dispatched load instructions
system.cpu.iew.iewDispNonSpecInsts               5892                       # Number of dispatched non-speculative instructions
system.cpu.iew.iewDispSquashedInsts             22712                       # Number of squashed instructions skipped by dispatch
system.cpu.iew.iewDispStoreInsts              1229993                       # Number of dispatched store instructions
system.cpu.iew.iewDispatchedInsts            11981627                       # Number of instructions dispatched to IQ
system.cpu.iew.iewExecLoadInsts               1836379                       # Number of load instructions executed
system.cpu.iew.iewExecSquashedInsts             47562                       # Number of squashed instructions skipped in execute
system.cpu.iew.iewExecutedInsts              11698345                       # Number of executed instructions
system.cpu.iew.iewIQFullEvents                    436                       # Number of times the IQ has become full, causing a stall
system.cpu.iew.iewIdleCycles                        0                       # Number of cycles IEW is idle
system.cpu.iew.iewLSQFullEvents                  8377                       # Number of times the LSQ has become full, causing a stall
system.cpu.iew.iewSquashCycles                  39600                       # Number of cycles IEW is squashing
system.cpu.iew.iewUnblockCycles                  9070                       # Number of cycles IEW is unblocking
system.cpu.iew.lsq.thread0.blockedLoads             0                       # Number of blocked loads due to partial load-store forwarding
system.cpu.iew.lsq.thread0.cacheBlocked           345                       # Number of times an access to memory failed due to the cache being blocked
system.cpu.iew.lsq.thread0.forwLoads            13950                       # Number of loads that had data forwarded from stores
system.cpu.iew.lsq.thread0.ignoredResponses            9                       # Number of memory responses ignored because the instruction is squashed
system.cpu.iew.lsq.thread0.invAddrLoads             0                       # Number of loads ignored due to an invalid address
system.cpu.iew.lsq.thread0.invAddrSwpfs             0                       # Number of software prefetches ignored due to an invalid address
system.cpu.iew.lsq.thread0.memOrderViolation          183                       # Number of memory ordering violations
system.cpu.iew.lsq.thread0.rescheduledLoads        31434                       # Number of loads that were rescheduled
system.cpu.iew.lsq.thread0.squashedLoads       103060                       # Number of loads squashed
system.cpu.iew.lsq.thread0.squashedStores        32370                       # Number of stores squashed
system.cpu.iew.memOrderViolationEvents            183                       # Number of memory order violations
system.cpu.iew.predictedNotTakenIncorrect        31139                       # Number of branches that were predicted not taken incorrectly
system.cpu.iew.predictedTakenIncorrect          17407                       # Number of branches that were predicted taken incorrectly
system.cpu.iew.wb_consumers                  11983472                       # num instructions consuming a value
system.cpu.iew.wb_count                      11626271                       # cumulative count of insts written-back
system.cpu.iew.wb_fanout                     0.494337                       # average fanout of values written-back
system.cpu.iew.wb_producers                   5923879                       # num instructions producing a value
system.cpu.iew.wb_rate                       1.123931                       # insts written-back per cycle
system.cpu.iew.wb_sent                       11638973                       # cumulative count of insts sent to commit
system.cpu.int_regfile_reads                 13301929                       # number of integer regfile reads
system.cpu.int_regfile_writes                 7830668                       # number of integer regfile writes
system.cpu.ipc                               0.966717                       # IPC: Instructions Per Cycle
system.cpu.ipc_total                         0.966717                       # IPC: Total IPC of All Threads
system.cpu.iq.FU_type_0::No_OpClass                 5      0.00%      0.00% # Type of FU issued
system.cpu.iq.FU_type_0::IntAlu               8431478     71.78%     71.78% # Type of FU issued
system.cpu.iq.FU_type_0::IntMult                28125      0.24%     72.02% # Type of FU issued
system.cpu.iq.FU_type_0::IntDiv                  1096      0.01%     72.03% # Type of FU issued
system.cpu.iq.FU_type_0::FloatAdd               86256      0.73%     72.77% # Type of FU issued
system.cpu.iq.FU_type_0::FloatCmp                5953      0.05%     72.82% # Type of FU issued
system.cpu.iq.FU_type_0::FloatCvt                 513      0.00%     72.82% # Type of FU issued
system.cpu.iq.FU_type_0::FloatMult                735      0.01%     72.83% # Type of FU issued
system.cpu.iq.FU_type_0::FloatMultAcc           83062      0.71%     73.53% # Type of FU issued
system.cpu.iq.FU_type_0::FloatDiv                  64      0.00%     73.53% # Type of FU issued
system.cpu.iq.FU_type_0::FloatMisc               5704      0.05%     73.58% # Type of FU issued
system.cpu.iq.FU_type_0::FloatSqrt               4219      0.04%     73.62% # Type of FU issued
system.cpu.iq.FU_type_0::SimdAdd                   24      0.00%     73.62% # Type of FU issued
system.cpu.iq.FU_type_0::SimdAddAcc                 0      0.00%     73.62% # Type of FU issued
system.cpu.iq.FU_type_0::SimdAlu                   24      0.00%     73.62% # Type of FU issued
system.cpu.iq.FU_type_0::SimdCmp                   20      0.00%     73.62% # Type of FU issued
system.cpu.iq.FU_type_0::SimdCvt                   12      0.00%     73.62% # Type of FU issued
system.cpu.iq.FU_type_0::SimdMisc               28453      0.24%     73.86% # Type of FU issued
system.cpu.iq.FU_type_0::SimdMult                   0      0.00%     73.86% # Type of FU issued
system.cpu.iq.FU_type_0::SimdMultAcc                0      0.00%     73.86% # Type of FU issued
system.cpu.iq.FU_type_0::SimdShift                  0      0.00%     73.86% # Type of FU issued
system.cpu.iq.FU_type_0::SimdShiftAcc               0      0.00%     73.86% # Type of FU issued
system.cpu.iq.FU_type_0::SimdDiv                    0      0.00%     73.86% # Type of FU issued
system.cpu.iq.FU_type_0::SimdSqrt                   0      0.00%     73.86% # Type of FU issued
system.cpu.iq.FU_type_0::SimdFloatAdd               0      0.00%     73.86% # Type of FU issued
system.cpu.iq.FU_type_0::SimdFloatAlu               0      0.00%     73.86% # Type of FU issued
system.cpu.iq.FU_type_0::SimdFloatCmp               0      0.00%     73.86% # Type of FU issued
system.cpu.iq.FU_type_0::SimdFloatCvt               0      0.00%     73.86% # Type of FU issued
system.cpu.iq.FU_type_0::SimdFloatDiv               0      0.00%     73.86% # Type of FU issued
system.cpu.iq.FU_type_0::SimdFloatMisc              0      0.00%     73.86% # Type of FU issued
system.cpu.iq.FU_type_0::SimdFloatMult              0      0.00%     73.86% # Type of FU issued
system.cpu.iq.FU_type_0::SimdFloatMultAcc            0      0.00%     73.86% # Type of FU issued
system.cpu.iq.FU_type_0::SimdFloatSqrt              0      0.00%     73.86% # Type of FU issued
system.cpu.iq.FU_type_0::SimdReduceAdd              0      0.00%     73.86% # Type of FU issued
system.cpu.iq.FU_type_0::SimdReduceAlu              0      0.00%     73.86% # Type of FU issued
system.cpu.iq.FU_type_0::SimdReduceCmp              0      0.00%     73.86% # Type of FU issued
system.cpu.iq.FU_type_0::SimdFloatReduceAdd            0      0.00%     73.86% # Type of FU issued
system.cpu.iq.FU_type_0::SimdFloatReduceCmp            0      0.00%     73.86% # Type of FU issued
system.cpu.iq.FU_type_0::SimdAes                    0      0.00%     73.86% # Type of FU issued
system.cpu.iq.FU_type_0::SimdAesMix                 0      0.00%     73.86% # Type of FU issued
system.cpu.iq.FU_type_0::SimdSha1Hash               0      0.00%     73.86% # Type of FU issued
system.cpu.iq.FU_type_0::SimdSha1Hash2              0      0.00%     73.86% # Type of FU issued
system.cpu.iq.FU_type_0::SimdSha256Hash             0      0.00%     73.86% # Type of FU issued
system.cpu.iq.FU_type_0::SimdSha256Hash2            0      0.00%     73.86% # Type of FU issued
system.cpu.iq.FU_type_0::SimdShaSigma2              0      0.00%     73.86% # Type of FU issued
system.cpu.iq.FU_type_0::SimdShaSigma3              0      0.00%     73.86% # Type of FU issued
system.cpu.iq.FU_type_0::SimdPredAlu                0      0.00%     73.86% # Type of FU issued
system.cpu.iq.FU_type_0::MemRead              1851737     15.76%     89.63% # Type of FU issued
system.cpu.iq.FU_type_0::MemWrite             1218432     10.37%    100.00% # Type of FU issued
system.cpu.iq.FU_type_0::FloatMemRead               0      0.00%    100.00% # Type of FU issued
system.cpu.iq.FU_type_0::FloatMemWrite              0      0.00%    100.00% # Type of FU issued
system.cpu.iq.FU_type_0::IprAccess                  0      0.00%    100.00% # Type of FU issued
system.cpu.iq.FU_type_0::InstPrefetch               0      0.00%    100.00% # Type of FU issued
system.cpu.iq.FU_type_0::total               11745912                       # Type of FU issued
system.cpu.iq.fp_alu_accesses                       0                       # Number of floating point alu accesses
system.cpu.iq.fp_inst_queue_reads                   0                       # Number of floating instruction queue reads
system.cpu.iq.fp_inst_queue_wakeup_accesses            0                       # Number of floating instruction queue wakeup accesses
system.cpu.iq.fp_inst_queue_writes                  0                       # Number of floating instruction queue writes
system.cpu.iq.fu_busy_cnt                      155936                       # FU busy when requested
system.cpu.iq.fu_busy_rate                   0.013276                       # FU busy rate (busy events/executed inst)
system.cpu.iq.fu_full::No_OpClass                   0      0.00%      0.00% # attempts to use FU when none available
system.cpu.iq.fu_full::IntAlu                   27076     17.36%     17.36% # attempts to use FU when none available
system.cpu.iq.fu_full::IntMult                     61      0.04%     17.40% # attempts to use FU when none available
system.cpu.iq.fu_full::IntDiv                       0      0.00%     17.40% # attempts to use FU when none available
system.cpu.iq.fu_full::FloatAdd                     0      0.00%     17.40% # attempts to use FU when none available
system.cpu.iq.fu_full::FloatCmp                     0      0.00%     17.40% # attempts to use FU when none available
system.cpu.iq.fu_full::FloatCvt                     0      0.00%     17.40% # attempts to use FU when none available
system.cpu.iq.fu_full::FloatMult                   70      0.04%     17.45% # attempts to use FU when none available
system.cpu.iq.fu_full::FloatMultAcc                40      0.03%     17.47% # attempts to use FU when none available
system.cpu.iq.fu_full::FloatDiv                   250      0.16%     17.63% # attempts to use FU when none available
system.cpu.iq.fu_full::FloatMisc                   29      0.02%     17.65% # attempts to use FU when none available
system.cpu.iq.fu_full::FloatSqrt                    0      0.00%     17.65% # attempts to use FU when none available
system.cpu.iq.fu_full::SimdAdd                      0      0.00%     17.65% # attempts to use FU when none available
system.cpu.iq.fu_full::SimdAddAcc                   0      0.00%     17.65% # attempts to use FU when none available
system.cpu.iq.fu_full::SimdAlu                      1      0.00%     17.65% # attempts to use FU when none available
system.cpu.iq.fu_full::SimdCmp                      2      0.00%     17.65% # attempts to use FU when none available
system.cpu.iq.fu_full::SimdCvt                      0      0.00%     17.65% # attempts to use FU when none available
system.cpu.iq.fu_full::SimdMisc                     0      0.00%     17.65% # attempts to use FU when none available
system.cpu.iq.fu_full::SimdMult                     0      0.00%     17.65% # attempts to use FU when none available
system.cpu.iq.fu_full::SimdMultAcc                  0      0.00%     17.65% # attempts to use FU when none available
system.cpu.iq.fu_full::SimdShift                    0      0.00%     17.65% # attempts to use FU when none available
system.cpu.iq.fu_full::SimdShiftAcc                 0      0.00%     17.65% # attempts to use FU when none available
system.cpu.iq.fu_full::SimdDiv                      0      0.00%     17.65% # attempts to use FU when none available
system.cpu.iq.fu_full::SimdSqrt                     0      0.00%     17.65% # attempts to use FU when none available
system.cpu.iq.fu_full::SimdFloatAdd                 0      0.00%     17.65% # attempts to use FU when none available
system.cpu.iq.fu_full::SimdFloatAlu                 0      0.00%     17.65% # attempts to use FU when none available
system.cpu.iq.fu_full::SimdFloatCmp                 0      0.00%     17.65% # attempts to use FU when none available
system.cpu.iq.fu_full::SimdFloatCvt                 0      0.00%     17.65% # attempts to use FU when none available
system.cpu.iq.fu_full::SimdFloatDiv                 0      0.00%     17.65% # attempts to use FU when none available
system.cpu.iq.fu_full::SimdFloatMisc                0      0.00%     17.65% # attempts to use FU when none available
system.cpu.iq.fu_full::SimdFloatMult                0      0.00%     17.65% # attempts to use FU when none available
system.cpu.iq.fu_full::SimdFloatMultAcc             0      0.00%     17.65% # attempts to use FU when none available
system.cpu.iq.fu_full::SimdFloatSqrt                0      0.00%     17.65% # attempts to use FU when none available
system.cpu.iq.fu_full::SimdReduceAdd                0      0.00%     17.65% # attempts to use FU when none available
system.cpu.iq.fu_full::SimdReduceAlu                0      0.00%     17.65% # attempts to use FU when none available
system.cpu.iq.fu_full::SimdReduceCmp                0      0.00%     17.65% # attempts to use FU when none available
system.cpu.iq.fu_full::SimdFloatReduceAdd            0      0.00%     17.65% # attempts to use FU when none available
system.cpu.iq.fu_full::SimdFloatReduceCmp            0      0.00%     17.65% # attempts to use FU when none available
system.cpu.iq.fu_full::SimdAes                      0      0.00%     17.65% # attempts to use FU when none available
system.cpu.iq.fu_full::SimdAesMix                   0      0.00%     17.65% # attempts to use FU when none available
system.cpu.iq.fu_full::SimdSha1Hash                 0      0.00%     17.65% # attempts to use FU when none available
system.cpu.iq.fu_full::SimdSha1Hash2                0      0.00%     17.65% # attempts to use FU when none available
system.cpu.iq.fu_full::SimdSha256Hash               0      0.00%     17.65% # attempts to use FU when none available
system.cpu.iq.fu_full::SimdSha256Hash2              0      0.00%     17.65% # attempts to use FU when none available
system.cpu.iq.fu_full::SimdShaSigma2                0      0.00%     17.65% # attempts to use FU when none available
system.cpu.iq.fu_full::SimdShaSigma3                0      0.00%     17.65% # attempts to use FU when none available
system.cpu.iq.fu_full::SimdPredAlu                  0      0.00%     17.65% # attempts to use FU when none available
system.cpu.iq.fu_full::MemRead                  45554     29.21%     46.87% # attempts to use FU when none available
system.cpu.iq.fu_full::MemWrite                 82853     53.13%    100.00% # attempts to use FU when none available
system.cpu.iq.fu_full::FloatMemRead                 0      0.00%    100.00% # attempts to use FU when none available
system.cpu.iq.fu_full::FloatMemWrite                0      0.00%    100.00% # attempts to use FU when none available
system.cpu.iq.fu_full::IprAccess                    0      0.00%    100.00% # attempts to use FU when none available
system.cpu.iq.fu_full::InstPrefetch                 0      0.00%    100.00% # attempts to use FU when none available
system.cpu.iq.int_alu_accesses               11293748                       # Number of integer alu accesses
system.cpu.iq.int_inst_queue_reads           31969863                       # Number of integer instruction queue reads
system.cpu.iq.int_inst_queue_wakeup_accesses     11043495                       # Number of integer instruction queue wakeup accesses
system.cpu.iq.int_inst_queue_writes          11970331                       # Number of integer instruction queue writes
system.cpu.iq.iqInstsAdded                   11962932                       # Number of instructions added to the IQ (excludes non-spec)
system.cpu.iq.iqInstsIssued                  11745912                       # Number of instructions issued
system.cpu.iq.iqNonSpecInstsAdded                5892                       # Number of non-speculative instructions added to the IQ
system.cpu.iq.iqSquashedInstsExamined          595516                       # Number of squashed instructions iterated over during squash; mainly for profiling
system.cpu.iq.iqSquashedInstsIssued              1915                       # Number of squashed instructions issued
system.cpu.iq.iqSquashedNonSpecRemoved            598                       # Number of squashed non-spec instructions that were removed
system.cpu.iq.iqSquashedOperandsExamined       648547                       # Number of squashed operands that are examined and possibly removed from graph
system.cpu.iq.issued_per_cycle::samples       9513424                       # Number of insts issued each cycle
system.cpu.iq.issued_per_cycle::mean         1.234667                       # Number of insts issued each cycle
system.cpu.iq.issued_per_cycle::stdev        1.920844                       # Number of insts issued each cycle
system.cpu.iq.issued_per_cycle::underflows            0      0.00%      0.00% # Number of insts issued each cycle
system.cpu.iq.issued_per_cycle::0             5545357     58.29%     58.29% # Number of insts issued each cycle
system.cpu.iq.issued_per_cycle::1             1272536     13.38%     71.67% # Number of insts issued each cycle
system.cpu.iq.issued_per_cycle::2              733090      7.71%     79.37% # Number of insts issued each cycle
system.cpu.iq.issued_per_cycle::3              596128      6.27%     85.64% # Number of insts issued each cycle
system.cpu.iq.issued_per_cycle::4              490855      5.16%     90.80% # Number of insts issued each cycle
system.cpu.iq.issued_per_cycle::5              256142      2.69%     93.49% # Number of insts issued each cycle
system.cpu.iq.issued_per_cycle::6              418798      4.40%     97.89% # Number of insts issued each cycle
system.cpu.iq.issued_per_cycle::7              142250      1.50%     99.39% # Number of insts issued each cycle
system.cpu.iq.issued_per_cycle::8               58268      0.61%    100.00% # Number of insts issued each cycle
system.cpu.iq.issued_per_cycle::overflows            0      0.00%    100.00% # Number of insts issued each cycle
system.cpu.iq.issued_per_cycle::min_value            0                       # Number of insts issued each cycle
system.cpu.iq.issued_per_cycle::max_value            8                       # Number of insts issued each cycle
system.cpu.iq.issued_per_cycle::total         9513424                       # Number of insts issued each cycle
system.cpu.iq.rate                           1.135497                       # Inst issue rate
system.cpu.iq.vec_alu_accesses                 608095                       # Number of vector alu accesses
system.cpu.iq.vec_inst_queue_reads            1193231                       # Number of vector instruction queue reads
system.cpu.iq.vec_inst_queue_wakeup_accesses       582776                       # Number of vector instruction queue wakeup accesses
system.cpu.iq.vec_inst_queue_writes            594185                       # Number of vector instruction queue writes
system.cpu.itb.accesses                             0                       # DTB accesses
system.cpu.itb.align_faults                         0                       # Number of TLB faults due to alignment restrictions
system.cpu.itb.domain_faults                        0                       # Number of TLB faults due to domain restrictions
system.cpu.itb.flush_entries                        0                       # Number of entries that have been flushed from TLB
system.cpu.itb.flush_tlb                            0                       # Number of times complete TLB was flushed
system.cpu.itb.flush_tlb_asid                       0                       # Number of times TLB was flushed by ASID
system.cpu.itb.flush_tlb_mva                        0                       # Number of times TLB was flushed by MVA
system.cpu.itb.flush_tlb_mva_asid                   0                       # Number of times TLB was flushed by MVA & ASID
system.cpu.itb.hits                                 0                       # DTB hits
system.cpu.itb.inst_accesses                        0                       # ITB inst accesses
system.cpu.itb.inst_hits                            0                       # ITB inst hits
system.cpu.itb.inst_misses                          0                       # ITB inst misses
system.cpu.itb.misses                               0                       # DTB misses
system.cpu.itb.perms_faults                         0                       # Number of TLB faults due to permissions restrictions
system.cpu.itb.prefetch_faults                      0                       # Number of TLB faults due to prefetch
system.cpu.itb.read_accesses                        0                       # DTB read accesses
system.cpu.itb.read_hits                            0                       # DTB read hits
system.cpu.itb.read_misses                          0                       # DTB read misses
system.cpu.itb.stage2_mmu.stage2_tlb.accesses            0                       # DTB accesses
system.cpu.itb.stage2_mmu.stage2_tlb.align_faults            0                       # Number of TLB faults due to alignment restrictions
system.cpu.itb.stage2_mmu.stage2_tlb.domain_faults            0                       # Number of TLB faults due to domain restrictions
system.cpu.itb.stage2_mmu.stage2_tlb.flush_entries            0                       # Number of entries that have been flushed from TLB
system.cpu.itb.stage2_mmu.stage2_tlb.flush_tlb            0                       # Number of times complete TLB was flushed
system.cpu.itb.stage2_mmu.stage2_tlb.flush_tlb_asid            0                       # Number of times TLB was flushed by ASID
system.cpu.itb.stage2_mmu.stage2_tlb.flush_tlb_mva            0                       # Number of times TLB was flushed by MVA
system.cpu.itb.stage2_mmu.stage2_tlb.flush_tlb_mva_asid            0                       # Number of times TLB was flushed by MVA & ASID
system.cpu.itb.stage2_mmu.stage2_tlb.hits            0                       # DTB hits
system.cpu.itb.stage2_mmu.stage2_tlb.inst_accesses            0                       # ITB inst accesses
system.cpu.itb.stage2_mmu.stage2_tlb.inst_hits            0                       # ITB inst hits
system.cpu.itb.stage2_mmu.stage2_tlb.inst_misses            0                       # ITB inst misses
system.cpu.itb.stage2_mmu.stage2_tlb.misses            0                       # DTB misses
system.cpu.itb.stage2_mmu.stage2_tlb.perms_faults            0                       # Number of TLB faults due to permissions restrictions
system.cpu.itb.stage2_mmu.stage2_tlb.prefetch_faults            0                       # Number of TLB faults due to prefetch
system.cpu.itb.stage2_mmu.stage2_tlb.read_accesses            0                       # DTB read accesses
system.cpu.itb.stage2_mmu.stage2_tlb.read_hits            0                       # DTB read hits
system.cpu.itb.stage2_mmu.stage2_tlb.read_misses            0                       # DTB read misses
system.cpu.itb.stage2_mmu.stage2_tlb.walker.walkRequestOrigin_Requested::Data            0                       # Table walker requests started/completed, data/inst
system.cpu.itb.stage2_mmu.stage2_tlb.walker.walkRequestOrigin_Requested::Inst            0                       # Table walker requests started/completed, data/inst
system.cpu.itb.stage2_mmu.stage2_tlb.walker.walkRequestOrigin_Requested::total            0                       # Table walker requests started/completed, data/inst
system.cpu.itb.stage2_mmu.stage2_tlb.walker.walkRequestOrigin_Completed::Data            0                       # Table walker requests started/completed, data/inst
system.cpu.itb.stage2_mmu.stage2_tlb.walker.walkRequestOrigin_Completed::Inst            0                       # Table walker requests started/completed, data/inst
system.cpu.itb.stage2_mmu.stage2_tlb.walker.walkRequestOrigin_Completed::total            0                       # Table walker requests started/completed, data/inst
system.cpu.itb.stage2_mmu.stage2_tlb.walker.walkRequestOrigin::total            0                       # Table walker requests started/completed, data/inst
system.cpu.itb.stage2_mmu.stage2_tlb.walker.walks            0                       # Table walker walks requested
system.cpu.itb.stage2_mmu.stage2_tlb.write_accesses            0                       # DTB write accesses
system.cpu.itb.stage2_mmu.stage2_tlb.write_hits            0                       # DTB write hits
system.cpu.itb.stage2_mmu.stage2_tlb.write_misses            0                       # DTB write misses
system.cpu.itb.walker.walkRequestOrigin_Requested::Data            0                       # Table walker requests started/completed, data/inst
system.cpu.itb.walker.walkRequestOrigin_Requested::Inst            0                       # Table walker requests started/completed, data/inst
system.cpu.itb.walker.walkRequestOrigin_Requested::total            0                       # Table walker requests started/completed, data/inst
system.cpu.itb.walker.walkRequestOrigin_Completed::Data            0                       # Table walker requests started/completed, data/inst
system.cpu.itb.walker.walkRequestOrigin_Completed::Inst            0                       # Table walker requests started/completed, data/inst
system.cpu.itb.walker.walkRequestOrigin_Completed::total            0                       # Table walker requests started/completed, data/inst
system.cpu.itb.walker.walkRequestOrigin::total            0                       # Table walker requests started/completed, data/inst
system.cpu.itb.walker.walks                         0                       # Table walker walks requested
system.cpu.itb.write_accesses                       0                       # DTB write accesses
system.cpu.itb.write_hits                           0                       # DTB write hits
system.cpu.itb.write_misses                         0                       # DTB write misses
system.cpu.memDep0.conflictingLoads             30530                       # Number of conflicting loads.
system.cpu.memDep0.conflictingStores            36813                       # Number of conflicting stores.
system.cpu.memDep0.insertedLoads              1844382                       # Number of loads inserted to the mem dependence unit.
system.cpu.memDep0.insertedStores             1229993                       # Number of stores inserted to the mem dependence unit.
system.cpu.misc_regfile_reads                 9068796                       # number of misc regfile reads
system.cpu.misc_regfile_writes                 202510                       # number of misc regfile writes
system.cpu.numCycles                         10344289                       # number of cpu cycles simulated
system.cpu.numWorkItemsCompleted                    0                       # number of work items this cpu completed
system.cpu.numWorkItemsStarted                      0                       # number of work items this cpu started
system.cpu.rename.BlockCycles                  113678                       # Number of cycles rename is blocking
system.cpu.rename.CommittedMaps              14124428                       # Number of HB maps that are committed
system.cpu.rename.IQFullEvents                  42846                       # Number of times rename has blocked due to IQ full
system.cpu.rename.IdleCycles                  6245714                       # Number of cycles rename is idle
system.cpu.rename.LQFullEvents                  84849                       # Number of times rename has blocked due to LQ full
system.cpu.rename.ROBFullEvents                    90                       # Number of times rename has blocked due to ROB full
system.cpu.rename.RenameLookups              22298034                       # Number of register rename lookups that rename has made
system.cpu.rename.RenamedInsts               12159369                       # Number of instructions processed by rename
system.cpu.rename.RenamedOperands            15145034                       # Number of destination operands rename has renamed
system.cpu.rename.RunCycles                   2491618                       # Number of cycles rename is running
system.cpu.rename.SQFullEvents                 151704                       # Number of times rename has blocked due to SQ full
system.cpu.rename.SquashCycles                  39600                       # Number of cycles rename is squashing
system.cpu.rename.UnblockCycles                320510                       # Number of cycles rename is unblocking
system.cpu.rename.UndoneMaps                  1020579                       # Number of HB maps that are undone due to squashing
system.cpu.rename.int_rename_lookups         13818891                       # Number of integer rename lookups
system.cpu.rename.serializeStallCycles         302304                       # count of cycles rename stalled for serializing inst
system.cpu.rename.serializingInsts              23128                       # count of serializing insts renamed
system.cpu.rename.skidInsts                    459602                       # count of insts added to the skid buffer
system.cpu.rename.tempSerializingInsts           5897                       # count of temporary serializing insts renamed
system.cpu.rename.vec_rename_lookups           633305                       # Number of vector rename lookups
system.cpu.rob.rob_reads                     20997407                       # The number of ROB reads
system.cpu.rob.rob_writes                    24061120                       # The number of ROB writes
system.cpu.timesIdled                          180036                       # Number of times that the entire CPU went into an idle state and unscheduled itself
system.cpu.vec_regfile_reads                   626730                       # number of vector regfile reads
system.cpu.vec_regfile_writes                  389814                       # number of vector regfile writes
system.cpu.workload.numSyscalls                    53                       # Number of system calls
system.membus.snoop_filter.hit_multi_requests            0                       # Number of requests hitting in the snoop filter with multiple (>1) holders of the requested data.
system.membus.snoop_filter.hit_multi_snoops            0                       # Number of snoops hitting in the snoop filter with multiple (>1) holders of the requested data.
system.membus.snoop_filter.hit_single_requests            0                       # Number of requests hitting in the snoop filter with a single holder of the requested data.
system.membus.snoop_filter.hit_single_snoops            0                       # Number of snoops hitting in the snoop filter with a single holder of the requested data.
system.membus.snoop_filter.tot_requests          3708                       # Total number of requests made to the snoop filter.
system.membus.snoop_filter.tot_snoops               0                       # Total number of snoops made to the snoop filter.
system.tol2bus.snoop_filter.hit_multi_requests           58                       # Number of requests hitting in the snoop filter with multiple (>1) holders of the requested data.
system.tol2bus.snoop_filter.hit_multi_snoops            0                       # Number of snoops hitting in the snoop filter with multiple (>1) holders of the requested data.
system.tol2bus.snoop_filter.hit_single_requests       229512                       # Number of requests hitting in the snoop filter with a single holder of the requested data.
system.tol2bus.snoop_filter.hit_single_snoops            0                       # Number of snoops hitting in the snoop filter with a single holder of the requested data.
system.tol2bus.snoop_filter.tot_requests       460119                       # Total number of requests made to the snoop filter.
system.tol2bus.snoop_filter.tot_snoops              0                       # Total number of snoops made to the snoop filter.
system.membus.trans_dist::ReadResp               3025                       # Transaction distribution
system.membus.trans_dist::ReadExReq               535                       # Transaction distribution
system.membus.trans_dist::ReadExResp              535                       # Transaction distribution
system.membus.trans_dist::ReadSharedReq          3025                       # Transaction distribution
system.membus.trans_dist::InvalidateReq           148                       # Transaction distribution
system.membus.pkt_count_system.l2.mem_side::system.mem_ctrls.port         7268                       # Packet count per connected master and slave (bytes)
system.membus.pkt_count::total                   7268                       # Packet count per connected master and slave (bytes)
system.membus.pkt_size_system.l2.mem_side::system.mem_ctrls.port       227840                       # Cumulative packet size per connected master and slave (bytes)
system.membus.pkt_size::total                  227840                       # Cumulative packet size per connected master and slave (bytes)
system.membus.snoops                                0                       # Total snoops (count)
system.membus.snoopTraffic                          0                       # Total snoop traffic (bytes)
system.membus.snoop_fanout::samples              3708                       # Request fanout histogram
system.membus.snoop_fanout::mean                    0                       # Request fanout histogram
system.membus.snoop_fanout::stdev                   0                       # Request fanout histogram
system.membus.snoop_fanout::underflows              0      0.00%      0.00% # Request fanout histogram
system.membus.snoop_fanout::0                    3708    100.00%    100.00% # Request fanout histogram
system.membus.snoop_fanout::1                       0      0.00%    100.00% # Request fanout histogram
system.membus.snoop_fanout::overflows               0      0.00%    100.00% # Request fanout histogram
system.membus.snoop_fanout::min_value               0                       # Request fanout histogram
system.membus.snoop_fanout::max_value               0                       # Request fanout histogram
system.membus.snoop_fanout::total                3708                       # Request fanout histogram
system.membus.reqLayer0.occupancy             4556500                       # Layer occupancy (ticks)
system.membus.reqLayer0.utilization               0.1                       # Layer utilization (%)
system.membus.respLayer1.occupancy           18855000                       # Layer occupancy (ticks)
system.membus.respLayer1.utilization              0.4                       # Layer utilization (%)
system.membus.power_state.pwrStateResidencyTicks::UNDEFINED   5172143500                       # Cumulative time (in ticks) in various power states
system.tol2bus.trans_dist::ReadResp            229860                       # Transaction distribution
system.tol2bus.trans_dist::WritebackDirty          634                       # Transaction distribution
system.tol2bus.trans_dist::WritebackClean       228466                       # Transaction distribution
system.tol2bus.trans_dist::CleanEvict             412                       # Transaction distribution
system.tol2bus.trans_dist::ReadExReq              599                       # Transaction distribution
system.tol2bus.trans_dist::ReadExResp             599                       # Transaction distribution
system.tol2bus.trans_dist::ReadCleanReq        228594                       # Transaction distribution
system.tol2bus.trans_dist::ReadSharedReq         1266                       # Transaction distribution
system.tol2bus.trans_dist::InvalidateReq          148                       # Transaction distribution
system.tol2bus.trans_dist::InvalidateResp          148                       # Transaction distribution
system.tol2bus.pkt_count_system.cpu.icache.mem_side::system.l2.cpu_side       685654                       # Packet count per connected master and slave (bytes)
system.tol2bus.pkt_count_system.cpu.dcache.mem_side::system.l2.cpu_side         5072                       # Packet count per connected master and slave (bytes)
system.tol2bus.pkt_count::total                690726                       # Packet count per connected master and slave (bytes)
system.tol2bus.pkt_size_system.cpu.icache.mem_side::system.l2.cpu_side     29251840                       # Cumulative packet size per connected master and slave (bytes)
system.tol2bus.pkt_size_system.cpu.dcache.mem_side::system.l2.cpu_side       159936                       # Cumulative packet size per connected master and slave (bytes)
system.tol2bus.pkt_size::total               29411776                       # Cumulative packet size per connected master and slave (bytes)
system.tol2bus.snoops                               0                       # Total snoops (count)
system.tol2bus.snoopTraffic                         0                       # Total snoop traffic (bytes)
system.tol2bus.snoop_fanout::samples           230607                       # Request fanout histogram
system.tol2bus.snoop_fanout::mean            0.000252                       # Request fanout histogram
system.tol2bus.snoop_fanout::stdev           0.015857                       # Request fanout histogram
system.tol2bus.snoop_fanout::underflows             0      0.00%      0.00% # Request fanout histogram
system.tol2bus.snoop_fanout::0                 230549     99.97%     99.97% # Request fanout histogram
system.tol2bus.snoop_fanout::1                     58      0.03%    100.00% # Request fanout histogram
system.tol2bus.snoop_fanout::2                      0      0.00%    100.00% # Request fanout histogram
system.tol2bus.snoop_fanout::overflows              0      0.00%    100.00% # Request fanout histogram
system.tol2bus.snoop_fanout::min_value              0                       # Request fanout histogram
system.tol2bus.snoop_fanout::max_value              1                       # Request fanout histogram
system.tol2bus.snoop_fanout::total             230607                       # Request fanout histogram
system.tol2bus.reqLayer0.occupancy          459159500                       # Layer occupancy (ticks)
system.tol2bus.reqLayer0.utilization              8.9                       # Layer utilization (%)
system.tol2bus.respLayer1.occupancy           2874494                       # Layer occupancy (ticks)
system.tol2bus.respLayer1.utilization             0.1                       # Layer utilization (%)
system.tol2bus.respLayer0.occupancy         342892497                       # Layer occupancy (ticks)
system.tol2bus.respLayer0.utilization             6.6                       # Layer utilization (%)
system.tol2bus.power_state.pwrStateResidencyTicks::UNDEFINED   5172143500                       # Cumulative time (in ticks) in various power states
system.voltage_domain.voltage                       1                       # Voltage in Volts
system.clk_domain.clock                          1000                       # Clock period in ticks
system.l2.demand_hits::.cpu.inst               226522                       # number of demand (read+write) hits
system.l2.demand_hits::.cpu.data                  377                       # number of demand (read+write) hits
system.l2.demand_hits::total                   226899                       # number of demand (read+write) hits
system.l2.overall_hits::.cpu.inst              226522                       # number of overall hits
system.l2.overall_hits::.cpu.data                 377                       # number of overall hits
system.l2.overall_hits::total                  226899                       # number of overall hits
system.l2.demand_misses::.cpu.inst               2072                       # number of demand (read+write) misses
system.l2.demand_misses::.cpu.data               1488                       # number of demand (read+write) misses
system.l2.demand_misses::total                   3560                       # number of demand (read+write) misses
system.l2.overall_misses::.cpu.inst              2072                       # number of overall misses
system.l2.overall_misses::.cpu.data              1488                       # number of overall misses
system.l2.overall_misses::total                  3560                       # number of overall misses
system.l2.demand_miss_latency::.cpu.inst    162270000                       # number of demand (read+write) miss cycles
system.l2.demand_miss_latency::.cpu.data    115989500                       # number of demand (read+write) miss cycles
system.l2.demand_miss_latency::total        278259500                       # number of demand (read+write) miss cycles
system.l2.overall_miss_latency::.cpu.inst    162270000                       # number of overall miss cycles
system.l2.overall_miss_latency::.cpu.data    115989500                       # number of overall miss cycles
system.l2.overall_miss_latency::total       278259500                       # number of overall miss cycles
system.l2.demand_accesses::.cpu.inst           228594                       # number of demand (read+write) accesses
system.l2.demand_accesses::.cpu.data             1865                       # number of demand (read+write) accesses
system.l2.demand_accesses::total               230459                       # number of demand (read+write) accesses
system.l2.overall_accesses::.cpu.inst          228594                       # number of overall (read+write) accesses
system.l2.overall_accesses::.cpu.data            1865                       # number of overall (read+write) accesses
system.l2.overall_accesses::total              230459                       # number of overall (read+write) accesses
system.l2.demand_miss_rate::.cpu.inst        0.009064                       # miss rate for demand accesses
system.l2.demand_miss_rate::.cpu.data        0.797855                       # miss rate for demand accesses
system.l2.demand_miss_rate::total            0.015447                       # miss rate for demand accesses
system.l2.overall_miss_rate::.cpu.inst       0.009064                       # miss rate for overall accesses
system.l2.overall_miss_rate::.cpu.data       0.797855                       # miss rate for overall accesses
system.l2.overall_miss_rate::total           0.015447                       # miss rate for overall accesses
system.l2.demand_avg_miss_latency::.cpu.inst 78315.637066                       # average overall miss latency
system.l2.demand_avg_miss_latency::.cpu.data 77949.932796                       # average overall miss latency
system.l2.demand_avg_miss_latency::total 78162.780899                       # average overall miss latency
system.l2.overall_avg_miss_latency::.cpu.inst 78315.637066                       # average overall miss latency
system.l2.overall_avg_miss_latency::.cpu.data 77949.932796                       # average overall miss latency
system.l2.overall_avg_miss_latency::total 78162.780899                       # average overall miss latency
system.l2.blocked_cycles::no_mshrs                  0                       # number of cycles access was blocked
system.l2.blocked_cycles::no_targets                0                       # number of cycles access was blocked
system.l2.blocked::no_mshrs                         0                       # number of cycles access was blocked
system.l2.blocked::no_targets                       0                       # number of cycles access was blocked
system.l2.avg_blocked_cycles::no_mshrs            nan                       # average number of cycles each access was blocked
system.l2.avg_blocked_cycles::no_targets          nan                       # average number of cycles each access was blocked
system.l2.demand_mshr_misses::.cpu.inst          2072                       # number of demand (read+write) MSHR misses
system.l2.demand_mshr_misses::.cpu.data          1488                       # number of demand (read+write) MSHR misses
system.l2.demand_mshr_misses::total              3560                       # number of demand (read+write) MSHR misses
system.l2.overall_mshr_misses::.cpu.inst         2072                       # number of overall MSHR misses
system.l2.overall_mshr_misses::.cpu.data         1488                       # number of overall MSHR misses
system.l2.overall_mshr_misses::total             3560                       # number of overall MSHR misses
system.l2.demand_mshr_miss_latency::.cpu.inst    141550000                       # number of demand (read+write) MSHR miss cycles
system.l2.demand_mshr_miss_latency::.cpu.data    101109001                       # number of demand (read+write) MSHR miss cycles
system.l2.demand_mshr_miss_latency::total    242659001                       # number of demand (read+write) MSHR miss cycles
system.l2.overall_mshr_miss_latency::.cpu.inst    141550000                       # number of overall MSHR miss cycles
system.l2.overall_mshr_miss_latency::.cpu.data    101109001                       # number of overall MSHR miss cycles
system.l2.overall_mshr_miss_latency::total    242659001                       # number of overall MSHR miss cycles
system.l2.demand_mshr_miss_rate::.cpu.inst     0.009064                       # mshr miss rate for demand accesses
system.l2.demand_mshr_miss_rate::.cpu.data     0.797855                       # mshr miss rate for demand accesses
system.l2.demand_mshr_miss_rate::total       0.015447                       # mshr miss rate for demand accesses
system.l2.overall_mshr_miss_rate::.cpu.inst     0.009064                       # mshr miss rate for overall accesses
system.l2.overall_mshr_miss_rate::.cpu.data     0.797855                       # mshr miss rate for overall accesses
system.l2.overall_mshr_miss_rate::total      0.015447                       # mshr miss rate for overall accesses
system.l2.demand_avg_mshr_miss_latency::.cpu.inst 68315.637066                       # average overall mshr miss latency
system.l2.demand_avg_mshr_miss_latency::.cpu.data 67949.597446                       # average overall mshr miss latency
system.l2.demand_avg_mshr_miss_latency::total 68162.640730                       # average overall mshr miss latency
system.l2.overall_avg_mshr_miss_latency::.cpu.inst 68315.637066                       # average overall mshr miss latency
system.l2.overall_avg_mshr_miss_latency::.cpu.data 67949.597446                       # average overall mshr miss latency
system.l2.overall_avg_mshr_miss_latency::total 68162.640730                       # average overall mshr miss latency
system.l2.replacements                              0                       # number of replacements
system.l2.WritebackDirty_hits::.writebacks          634                       # number of WritebackDirty hits
system.l2.WritebackDirty_hits::total              634                       # number of WritebackDirty hits
system.l2.WritebackDirty_accesses::.writebacks          634                       # number of WritebackDirty accesses(hits+misses)
system.l2.WritebackDirty_accesses::total          634                       # number of WritebackDirty accesses(hits+misses)
system.l2.WritebackClean_hits::.writebacks       228408                       # number of WritebackClean hits
system.l2.WritebackClean_hits::total           228408                       # number of WritebackClean hits
system.l2.WritebackClean_accesses::.writebacks       228408                       # number of WritebackClean accesses(hits+misses)
system.l2.WritebackClean_accesses::total       228408                       # number of WritebackClean accesses(hits+misses)
system.l2.ReadExReq_hits::.cpu.data                64                       # number of ReadExReq hits
system.l2.ReadExReq_hits::total                    64                       # number of ReadExReq hits
system.l2.ReadExReq_misses::.cpu.data             535                       # number of ReadExReq misses
system.l2.ReadExReq_misses::total                 535                       # number of ReadExReq misses
system.l2.ReadExReq_miss_latency::.cpu.data     41380000                       # number of ReadExReq miss cycles
system.l2.ReadExReq_miss_latency::total      41380000                       # number of ReadExReq miss cycles
system.l2.ReadExReq_accesses::.cpu.data           599                       # number of ReadExReq accesses(hits+misses)
system.l2.ReadExReq_accesses::total               599                       # number of ReadExReq accesses(hits+misses)
system.l2.ReadExReq_miss_rate::.cpu.data     0.893155                       # miss rate for ReadExReq accesses
system.l2.ReadExReq_miss_rate::total         0.893155                       # miss rate for ReadExReq accesses
system.l2.ReadExReq_avg_miss_latency::.cpu.data 77345.794393                       # average ReadExReq miss latency
system.l2.ReadExReq_avg_miss_latency::total 77345.794393                       # average ReadExReq miss latency
system.l2.ReadExReq_mshr_misses::.cpu.data          535                       # number of ReadExReq MSHR misses
system.l2.ReadExReq_mshr_misses::total            535                       # number of ReadExReq MSHR misses
system.l2.ReadExReq_mshr_miss_latency::.cpu.data     36029501                       # number of ReadExReq MSHR miss cycles
system.l2.ReadExReq_mshr_miss_latency::total     36029501                       # number of ReadExReq MSHR miss cycles
system.l2.ReadExReq_mshr_miss_rate::.cpu.data     0.893155                       # mshr miss rate for ReadExReq accesses
system.l2.ReadExReq_mshr_miss_rate::total     0.893155                       # mshr miss rate for ReadExReq accesses
system.l2.ReadExReq_avg_mshr_miss_latency::.cpu.data 67344.861682                       # average ReadExReq mshr miss latency
system.l2.ReadExReq_avg_mshr_miss_latency::total 67344.861682                       # average ReadExReq mshr miss latency
system.l2.ReadCleanReq_hits::.cpu.inst         226522                       # number of ReadCleanReq hits
system.l2.ReadCleanReq_hits::total             226522                       # number of ReadCleanReq hits
system.l2.ReadCleanReq_misses::.cpu.inst         2072                       # number of ReadCleanReq misses
system.l2.ReadCleanReq_misses::total             2072                       # number of ReadCleanReq misses
system.l2.ReadCleanReq_miss_latency::.cpu.inst    162270000                       # number of ReadCleanReq miss cycles
system.l2.ReadCleanReq_miss_latency::total    162270000                       # number of ReadCleanReq miss cycles
system.l2.ReadCleanReq_accesses::.cpu.inst       228594                       # number of ReadCleanReq accesses(hits+misses)
system.l2.ReadCleanReq_accesses::total         228594                       # number of ReadCleanReq accesses(hits+misses)
system.l2.ReadCleanReq_miss_rate::.cpu.inst     0.009064                       # miss rate for ReadCleanReq accesses
system.l2.ReadCleanReq_miss_rate::total      0.009064                       # miss rate for ReadCleanReq accesses
system.l2.ReadCleanReq_avg_miss_latency::.cpu.inst 78315.637066                       # average ReadCleanReq miss latency
system.l2.ReadCleanReq_avg_miss_latency::total 78315.637066                       # average ReadCleanReq miss latency
system.l2.ReadCleanReq_mshr_misses::.cpu.inst         2072                       # number of ReadCleanReq MSHR misses
system.l2.ReadCleanReq_mshr_misses::total         2072                       # number of ReadCleanReq MSHR misses
system.l2.ReadCleanReq_mshr_miss_latency::.cpu.inst    141550000                       # number of ReadCleanReq MSHR miss cycles
system.l2.ReadCleanReq_mshr_miss_latency::total    141550000                       # number of ReadCleanReq MSHR miss cycles
system.l2.ReadCleanReq_mshr_miss_rate::.cpu.inst     0.009064                       # mshr miss rate for ReadCleanReq accesses
system.l2.ReadCleanReq_mshr_miss_rate::total     0.009064                       # mshr miss rate for ReadCleanReq accesses
system.l2.ReadCleanReq_avg_mshr_miss_latency::.cpu.inst 68315.637066                       # average ReadCleanReq mshr miss latency
system.l2.ReadCleanReq_avg_mshr_miss_latency::total 68315.637066                       # average ReadCleanReq mshr miss latency
[...]
system.cpu.dcache.overall_miss_latency::.cpu.data    364700699                       # number of overall miss cycles
system.cpu.dcache.overall_miss_latency::total    364700699                       # number of overall miss cycles
system.cpu.dcache.demand_accesses::.cpu.data      2990568                       # number of demand (read+write) accesses
system.cpu.dcache.demand_accesses::total      2990568                       # number of demand (read+write) accesses
system.cpu.dcache.overall_accesses::.cpu.data      3001921                       # number of overall (read+write) accesses
system.cpu.dcache.overall_accesses::total      3001921                       # number of overall (read+write) accesses
system.cpu.dcache.demand_miss_rate::.cpu.data     0.002072                       # miss rate for demand accesses
system.cpu.dcache.demand_miss_rate::total     0.002072                       # miss rate for demand accesses
system.cpu.dcache.overall_miss_rate::.cpu.data     0.002072                       # miss rate for overall accesses
system.cpu.dcache.overall_miss_rate::total     0.002072                       # miss rate for overall accesses
system.cpu.dcache.demand_avg_miss_latency::.cpu.data 58870.169330                       # average overall miss latency
system.cpu.dcache.demand_avg_miss_latency::total 58870.169330                       # average overall miss latency
system.cpu.dcache.overall_avg_miss_latency::.cpu.data 58633.552894                       # average overall miss latency
system.cpu.dcache.overall_avg_miss_latency::total 58633.552894                       # average overall miss latency
system.cpu.dcache.blocked_cycles::no_mshrs        11453                       # number of cycles access was blocked
system.cpu.dcache.blocked_cycles::no_targets          401                       # number of cycles access was blocked
system.cpu.dcache.blocked::no_mshrs               374                       # number of cycles access was blocked
system.cpu.dcache.blocked::no_targets               5                       # number of cycles access was blocked
system.cpu.dcache.avg_blocked_cycles::no_mshrs    30.622995                       # average number of cycles each access was blocked
system.cpu.dcache.avg_blocked_cycles::no_targets    80.200000                       # average number of cycles each access was blocked
system.cpu.dcache.writebacks::.writebacks          634                       # number of writebacks
system.cpu.dcache.writebacks::total               634                       # number of writebacks
system.cpu.dcache.demand_mshr_hits::.cpu.data         4207                       # number of demand (read+write) MSHR hits
system.cpu.dcache.demand_mshr_hits::total         4207                       # number of demand (read+write) MSHR hits
system.cpu.dcache.overall_mshr_hits::.cpu.data         4207                       # number of overall MSHR hits
system.cpu.dcache.overall_mshr_hits::total         4207                       # number of overall MSHR hits
system.cpu.dcache.demand_mshr_misses::.cpu.data         1988                       # number of demand (read+write) MSHR misses
system.cpu.dcache.demand_mshr_misses::total         1988                       # number of demand (read+write) MSHR misses
system.cpu.dcache.overall_mshr_misses::.cpu.data         2011                       # number of overall MSHR misses
system.cpu.dcache.overall_mshr_misses::total         2011                       # number of overall MSHR misses
system.cpu.dcache.demand_mshr_miss_latency::.cpu.data    124968389                       # number of demand (read+write) MSHR miss cycles
system.cpu.dcache.demand_mshr_miss_latency::total    124968389                       # number of demand (read+write) MSHR miss cycles
system.cpu.dcache.overall_mshr_miss_latency::.cpu.data    127199889                       # number of overall MSHR miss cycles
system.cpu.dcache.overall_mshr_miss_latency::total    127199889                       # number of overall MSHR miss cycles
system.cpu.dcache.demand_mshr_miss_rate::.cpu.data     0.000665                       # mshr miss rate for demand accesses
system.cpu.dcache.demand_mshr_miss_rate::total     0.000665                       # mshr miss rate for demand accesses
system.cpu.dcache.overall_mshr_miss_rate::.cpu.data     0.000670                       # mshr miss rate for overall accesses
system.cpu.dcache.overall_mshr_miss_rate::total     0.000670                       # mshr miss rate for overall accesses
system.cpu.dcache.demand_avg_mshr_miss_latency::.cpu.data 62861.362676                       # average overall mshr miss latency
system.cpu.dcache.demand_avg_mshr_miss_latency::total 62861.362676                       # average overall mshr miss latency
system.cpu.dcache.overall_avg_mshr_miss_latency::.cpu.data 63252.058180                       # average overall mshr miss latency
system.cpu.dcache.overall_avg_mshr_miss_latency::total 63252.058180                       # average overall mshr miss latency
system.cpu.dcache.replacements                   1046                       # number of replacements
system.cpu.dcache.ReadReq_hits::.cpu.data      1791717                       # number of ReadReq hits
system.cpu.dcache.ReadReq_hits::total         1791717                       # number of ReadReq hits
system.cpu.dcache.ReadReq_misses::.cpu.data         2557                       # number of ReadReq misses
system.cpu.dcache.ReadReq_misses::total          2557                       # number of ReadReq misses
system.cpu.dcache.ReadReq_miss_latency::.cpu.data    144505000                       # number of ReadReq miss cycles
system.cpu.dcache.ReadReq_miss_latency::total    144505000                       # number of ReadReq miss cycles
system.cpu.dcache.ReadReq_accesses::.cpu.data      1794274                       # number of ReadReq accesses(hits+misses)
system.cpu.dcache.ReadReq_accesses::total      1794274                       # number of ReadReq accesses(hits+misses)
system.cpu.dcache.ReadReq_miss_rate::.cpu.data     0.001425                       # miss rate for ReadReq accesses
system.cpu.dcache.ReadReq_miss_rate::total     0.001425                       # miss rate for ReadReq accesses
system.cpu.dcache.ReadReq_avg_miss_latency::.cpu.data 56513.492374                       # average ReadReq miss latency
system.cpu.dcache.ReadReq_avg_miss_latency::total 56513.492374                       # average ReadReq miss latency
system.cpu.dcache.ReadReq_mshr_hits::.cpu.data         1316                       # number of ReadReq MSHR hits
system.cpu.dcache.ReadReq_mshr_hits::total         1316                       # number of ReadReq MSHR hits
system.cpu.dcache.ReadReq_mshr_misses::.cpu.data         1241                       # number of ReadReq MSHR misses
system.cpu.dcache.ReadReq_mshr_misses::total         1241                       # number of ReadReq MSHR misses
system.cpu.dcache.ReadReq_mshr_miss_latency::.cpu.data     77406000                       # number of ReadReq MSHR miss cycles
system.cpu.dcache.ReadReq_mshr_miss_latency::total     77406000                       # number of ReadReq MSHR miss cycles
system.cpu.dcache.ReadReq_mshr_miss_rate::.cpu.data     0.000692                       # mshr miss rate for ReadReq accesses
system.cpu.dcache.ReadReq_mshr_miss_rate::total     0.000692                       # mshr miss rate for ReadReq accesses
system.cpu.dcache.ReadReq_avg_mshr_miss_latency::.cpu.data 62373.892023                       # average ReadReq mshr miss latency
system.cpu.dcache.ReadReq_avg_mshr_miss_latency::total 62373.892023                       # average ReadReq mshr miss latency
system.cpu.dcache.WriteReq_hits::.cpu.data      1191619                       # number of WriteReq hits
system.cpu.dcache.WriteReq_hits::total        1191619                       # number of WriteReq hits
system.cpu.dcache.WriteReq_misses::.cpu.data         3500                       # number of WriteReq misses
system.cpu.dcache.WriteReq_misses::total         3500                       # number of WriteReq misses
system.cpu.dcache.WriteReq_miss_latency::.cpu.data    215790783                       # number of WriteReq miss cycles
system.cpu.dcache.WriteReq_miss_latency::total    215790783                       # number of WriteReq miss cycles
system.cpu.dcache.WriteReq_accesses::.cpu.data      1195119                       # number of WriteReq accesses(hits+misses)
system.cpu.dcache.WriteReq_accesses::total      1195119                       # number of WriteReq accesses(hits+misses)
system.cpu.dcache.WriteReq_miss_rate::.cpu.data     0.002929                       # miss rate for WriteReq accesses
system.cpu.dcache.WriteReq_miss_rate::total     0.002929                       # miss rate for WriteReq accesses
system.cpu.dcache.WriteReq_avg_miss_latency::.cpu.data 61654.509429                       # average WriteReq miss latency
system.cpu.dcache.WriteReq_avg_miss_latency::total 61654.509429                       # average WriteReq miss latency
system.cpu.dcache.WriteReq_mshr_hits::.cpu.data         2891                       # number of WriteReq MSHR hits
system.cpu.dcache.WriteReq_mshr_hits::total         2891                       # number of WriteReq MSHR hits
system.cpu.dcache.WriteReq_mshr_misses::.cpu.data          609                       # number of WriteReq MSHR misses
system.cpu.dcache.WriteReq_mshr_misses::total          609                       # number of WriteReq MSHR misses
system.cpu.dcache.WriteReq_mshr_miss_latency::.cpu.data     43295473                       # number of WriteReq MSHR miss cycles
system.cpu.dcache.WriteReq_mshr_miss_latency::total     43295473                       # number of WriteReq MSHR miss cycles
system.cpu.dcache.WriteReq_mshr_miss_rate::.cpu.data     0.000510                       # mshr miss rate for WriteReq accesses
system.cpu.dcache.WriteReq_mshr_miss_rate::total     0.000510                       # mshr miss rate for WriteReq accesses
system.cpu.dcache.WriteReq_avg_mshr_miss_latency::.cpu.data 71092.730706                       # average WriteReq mshr miss latency
system.cpu.dcache.WriteReq_avg_mshr_miss_latency::total 71092.730706                       # average WriteReq mshr miss latency
system.cpu.dcache.SoftPFReq_hits::.cpu.data        11328                       # number of SoftPFReq hits
system.cpu.dcache.SoftPFReq_hits::total         11328                       # number of SoftPFReq hits
system.cpu.dcache.SoftPFReq_misses::.cpu.data           25                       # number of SoftPFReq misses
system.cpu.dcache.SoftPFReq_misses::total           25                       # number of SoftPFReq misses
system.cpu.dcache.SoftPFReq_accesses::.cpu.data        11353                       # number of SoftPFReq accesses(hits+misses)
system.cpu.dcache.SoftPFReq_accesses::total        11353                       # number of SoftPFReq accesses(hits+misses)
system.cpu.dcache.SoftPFReq_miss_rate::.cpu.data     0.002202                       # miss rate for SoftPFReq accesses
system.cpu.dcache.SoftPFReq_miss_rate::total     0.002202                       # miss rate for SoftPFReq accesses
system.cpu.dcache.SoftPFReq_mshr_misses::.cpu.data           23                       # number of SoftPFReq MSHR misses
system.cpu.dcache.SoftPFReq_mshr_misses::total           23                       # number of SoftPFReq MSHR misses
system.cpu.dcache.SoftPFReq_mshr_miss_latency::.cpu.data      2231500                       # number of SoftPFReq MSHR miss cycles
system.cpu.dcache.SoftPFReq_mshr_miss_latency::total      2231500                       # number of SoftPFReq MSHR miss cycles
system.cpu.dcache.SoftPFReq_mshr_miss_rate::.cpu.data     0.002026                       # mshr miss rate for SoftPFReq accesses
system.cpu.dcache.SoftPFReq_mshr_miss_rate::total     0.002026                       # mshr miss rate for SoftPFReq accesses
system.cpu.dcache.SoftPFReq_avg_mshr_miss_latency::.cpu.data 97021.739130                       # average SoftPFReq mshr miss latency
system.cpu.dcache.SoftPFReq_avg_mshr_miss_latency::total 97021.739130                       # average SoftPFReq mshr miss latency
system.cpu.dcache.WriteLineReq_hits::.cpu.data         1037                       # number of WriteLineReq hits
system.cpu.dcache.WriteLineReq_hits::total         1037                       # number of WriteLineReq hits
system.cpu.dcache.WriteLineReq_misses::.cpu.data          138                       # number of WriteLineReq misses
system.cpu.dcache.WriteLineReq_misses::total          138                       # number of WriteLineReq misses
system.cpu.dcache.WriteLineReq_miss_latency::.cpu.data      4404916                       # number of WriteLineReq miss cycles
system.cpu.dcache.WriteLineReq_miss_latency::total      4404916                       # number of WriteLineReq miss cycles
system.cpu.dcache.WriteLineReq_accesses::.cpu.data         1175                       # number of WriteLineReq accesses(hits+misses)
system.cpu.dcache.WriteLineReq_accesses::total         1175                       # number of WriteLineReq accesses(hits+misses)
system.cpu.dcache.WriteLineReq_miss_rate::.cpu.data     0.117447                       # miss rate for WriteLineReq accesses
system.cpu.dcache.WriteLineReq_miss_rate::total     0.117447                       # miss rate for WriteLineReq accesses
system.cpu.dcache.WriteLineReq_avg_miss_latency::.cpu.data 31919.681159                       # average WriteLineReq miss latency
system.cpu.dcache.WriteLineReq_avg_miss_latency::total 31919.681159                       # average WriteLineReq miss latency
system.cpu.dcache.WriteLineReq_mshr_misses::.cpu.data          138                       # number of WriteLineReq MSHR misses
system.cpu.dcache.WriteLineReq_mshr_misses::total          138                       # number of WriteLineReq MSHR misses
system.cpu.dcache.WriteLineReq_mshr_miss_latency::.cpu.data      4266916                       # number of WriteLineReq MSHR miss cycles
system.cpu.dcache.WriteLineReq_mshr_miss_latency::total      4266916                       # number of WriteLineReq MSHR miss cycles
system.cpu.dcache.WriteLineReq_mshr_miss_rate::.cpu.data     0.117447                       # mshr miss rate for WriteLineReq accesses
system.cpu.dcache.WriteLineReq_mshr_miss_rate::total     0.117447                       # mshr miss rate for WriteLineReq accesses
system.cpu.dcache.WriteLineReq_avg_mshr_miss_latency::.cpu.data 30919.681159                       # average WriteLineReq mshr miss latency
system.cpu.dcache.WriteLineReq_avg_mshr_miss_latency::total 30919.681159                       # average WriteLineReq mshr miss latency
system.cpu.dcache.LoadLockedReq_hits::.cpu.data         5826                       # number of LoadLockedReq hits
system.cpu.dcache.LoadLockedReq_hits::total         5826                       # number of LoadLockedReq hits
system.cpu.dcache.LoadLockedReq_misses::.cpu.data            2                       # number of LoadLockedReq misses
system.cpu.dcache.LoadLockedReq_misses::total            2                       # number of LoadLockedReq misses
system.cpu.dcache.LoadLockedReq_miss_latency::.cpu.data       186500                       # number of LoadLockedReq miss cycles
system.cpu.dcache.LoadLockedReq_miss_latency::total       186500                       # number of LoadLockedReq miss cycles
system.cpu.dcache.LoadLockedReq_accesses::.cpu.data         5828                       # number of LoadLockedReq accesses(hits+misses)
system.cpu.dcache.LoadLockedReq_accesses::total         5828                       # number of LoadLockedReq accesses(hits+misses)
system.cpu.dcache.LoadLockedReq_miss_rate::.cpu.data     0.000343                       # miss rate for LoadLockedReq accesses
system.cpu.dcache.LoadLockedReq_miss_rate::total     0.000343                       # miss rate for LoadLockedReq accesses
system.cpu.dcache.LoadLockedReq_avg_miss_latency::.cpu.data        93250                       # average LoadLockedReq miss latency
system.cpu.dcache.LoadLockedReq_avg_miss_latency::total        93250                       # average LoadLockedReq miss latency
system.cpu.dcache.LoadLockedReq_mshr_misses::.cpu.data            2                       # number of LoadLockedReq MSHR misses
system.cpu.dcache.LoadLockedReq_mshr_misses::total            2                       # number of LoadLockedReq MSHR misses
system.cpu.dcache.LoadLockedReq_mshr_miss_latency::.cpu.data       184500                       # number of LoadLockedReq MSHR miss cycles
system.cpu.dcache.LoadLockedReq_mshr_miss_latency::total       184500                       # number of LoadLockedReq MSHR miss cycles
system.cpu.dcache.LoadLockedReq_mshr_miss_rate::.cpu.data     0.000343                       # mshr miss rate for LoadLockedReq accesses
system.cpu.dcache.LoadLockedReq_mshr_miss_rate::total     0.000343                       # mshr miss rate for LoadLockedReq accesses
system.cpu.dcache.LoadLockedReq_avg_mshr_miss_latency::.cpu.data        92250                       # average LoadLockedReq mshr miss latency
system.cpu.dcache.LoadLockedReq_avg_mshr_miss_latency::total        92250                       # average LoadLockedReq mshr miss latency
system.cpu.dcache.StoreCondReq_hits::.cpu.data         5240                       # number of StoreCondReq hits
system.cpu.dcache.StoreCondReq_hits::total         5240                       # number of StoreCondReq hits
system.cpu.dcache.StoreCondReq_accesses::.cpu.data         5240                       # number of StoreCondReq accesses(hits+misses)
system.cpu.dcache.StoreCondReq_accesses::total         5240                       # number of StoreCondReq accesses(hits+misses)
system.cpu.dcache.power_state.pwrStateResidencyTicks::UNDEFINED   5172143500                       # Cumulative time (in ticks) in various power states
system.cpu.dcache.tags.tagsinuse           933.588867                       # Cycle average of tags in use
system.cpu.dcache.tags.total_refs             3008780                       # Total number of references to valid blocks.
system.cpu.dcache.tags.sampled_refs              2013                       # Sample count of references to valid blocks.
system.cpu.dcache.tags.avg_refs           1494.674615                       # Average number of references to valid blocks.
system.cpu.dcache.tags.warmup_cycle            176500                       # Cycle when the warmup percentage was hit.
system.cpu.dcache.tags.occ_blocks::.cpu.data   933.588867                       # Average occupied blocks per requestor
system.cpu.dcache.tags.occ_percent::.cpu.data     0.911708                       # Average percentage of cache occupancy
system.cpu.dcache.tags.occ_percent::total     0.911708                       # Average percentage of cache occupancy
system.cpu.dcache.tags.occ_task_id_blocks::1024          967                       # Occupied blocks per task id
system.cpu.dcache.tags.age_task_id_blocks_1024::1            3                       # Occupied blocks per task id
system.cpu.dcache.tags.age_task_id_blocks_1024::2            6                       # Occupied blocks per task id
system.cpu.dcache.tags.age_task_id_blocks_1024::3          958                       # Occupied blocks per task id
system.cpu.dcache.tags.occ_task_id_percent::1024     0.944336                       # Percentage of cache occupancy per task id
system.cpu.dcache.tags.tag_accesses           6027991                       # Number of tag accesses
system.cpu.dcache.tags.data_accesses          6027991                       # Number of data accesses
system.cpu.dcache.tags.power_state.pwrStateResidencyTicks::UNDEFINED   5172143500                       # Cumulative time (in ticks) in various power states
system.cpu.power_state.pwrStateResidencyTicks::ON   5172143500                       # Cumulative time (in ticks) in various power states

---------- End Simulation Statistics   ----------
