
---------- Begin Simulation Statistics ----------
final_tick                                 8715688500                       # Number of ticks from beginning of simulation (restored from checkpoints and never reset)
host_inst_rate                                 169905                       # Simulator instruction rate (inst/s)
host_mem_usage                                 869388                       # Number of bytes of host memory used
host_op_rate                                   170366                       # Simulator op (including micro ops) rate (op/s)
host_seconds                                    58.86                       # Real time elapsed on the host
host_tick_rate                              148083183                       # Simulator tick rate (ticks/s)
sim_freq                                 1000000000000                       # Frequency of simulated ticks
sim_insts                                    10000002                       # Number of instructions simulated
sim_ops                                      10027169                       # Number of ops (including micro ops) simulated
sim_seconds                                  0.008716                       # Number of seconds simulated
sim_ticks                                  8715688500                       # Number of ticks simulated
system.cpu.branchPred.BTBCorrect                    0                       # Number of correct BTB predictions (this stat may not work properly.
system.cpu.branchPred.BTBHitPct             99.929355                       # BTB Hit Percentage
system.cpu.branchPred.BTBHits                 3007296                       # Number of BTB hits
system.cpu.branchPred.BTBLookups              3009422                       # Number of BTB lookups
system.cpu.branchPred.RASInCorrect                 12                       # Number of incorrect RAS predictions.
system.cpu.branchPred.condIncorrect             22750                       # Number of conditional branches incorrect
system.cpu.branchPred.condPredicted           3039590                       # Number of conditional branches predicted
system.cpu.branchPred.indirectHits               1690                       # Number of indirect target hits.
system.cpu.branchPred.indirectLookups            2517                       # Number of indirect predictor lookups.
system.cpu.branchPred.indirectMisses              827                       # Number of indirect misses.
system.cpu.branchPred.lookups                 3054028                       # Number of BP lookups
system.cpu.branchPred.usedRAS                    5708                       # Number of times the RAS was used to get a target.
system.cpu.branchPredindirectMispredicted          236                       # Number of mispredicted indirect branches.
system.cpu.cc_regfile_reads                   7997472                       # number of cc regfile reads
system.cpu.cc_regfile_writes                  8031813                       # number of cc regfile writes
system.cpu.commit.amos                              0                       # Number of atomic instructions committed
system.cpu.commit.branchMispredicts             22174                       # The number of times a branch was mispredicted
system.cpu.commit.branches                    2501415                       # Number of branches committed
system.cpu.commit.bw_lim_events                  7385                       # number cycles where commit BW limit reached
system.cpu.commit.commitNonSpecStalls             174                       # The number of times commit has been forced to stall to communicate backwards
system.cpu.commit.commitSquashedInsts          790014                       # The number of squashed insts skipped by commit
system.cpu.commit.committedInsts             10019633                       # Number of instructions committed
system.cpu.commit.committedOps               10046800                       # Number of ops (including micro ops) committed
system.cpu.commit.committed_per_cycle::samples     17229952                       # Number of insts commited each cycle
system.cpu.commit.committed_per_cycle::mean     0.583101                       # Number of insts commited each cycle
system.cpu.commit.committed_per_cycle::stdev     1.328692                       # Number of insts commited each cycle
system.cpu.commit.committed_per_cycle::underflows            0      0.00%      0.00% # Number of insts commited each cycle
system.cpu.commit.committed_per_cycle::0     13940278     80.91%     80.91% # Number of insts commited each cycle
system.cpu.commit.committed_per_cycle::1       788667      4.58%     85.48% # Number of insts commited each cycle
system.cpu.commit.committed_per_cycle::2       208020      1.21%     86.69% # Number of insts commited each cycle
system.cpu.commit.committed_per_cycle::3       401361      2.33%     89.02% # Number of insts commited each cycle
system.cpu.commit.committed_per_cycle::4      1857968     10.78%     99.80% # Number of insts commited each cycle
system.cpu.commit.committed_per_cycle::5        17522      0.10%     99.91% # Number of insts commited each cycle
system.cpu.commit.committed_per_cycle::6         1809      0.01%     99.92% # Number of insts commited each cycle
system.cpu.commit.committed_per_cycle::7         6942      0.04%     99.96% # Number of insts commited each cycle
system.cpu.commit.committed_per_cycle::8         7385      0.04%    100.00% # Number of insts commited each cycle
system.cpu.commit.committed_per_cycle::overflows            0      0.00%    100.00% # Number of insts commited each cycle
system.cpu.commit.committed_per_cycle::min_value            0                       # Number of insts commited each cycle
system.cpu.commit.committed_per_cycle::max_value            8                       # Number of insts commited each cycle
system.cpu.commit.committed_per_cycle::total     17229952                       # Number of insts commited each cycle
system.cpu.commit.fp_insts                          0                       # Number of committed floating point instructions.
system.cpu.commit.function_calls                 4620                       # Number of function calls committed.
system.cpu.commit.int_insts                   7546090                       # Number of committed integer instructions.
system.cpu.commit.loads                         35385                       # Number of loads committed
system.cpu.commit.membars                         138                       # Number of memory barriers committed
system.cpu.commit.op_class_0::No_OpClass            3      0.00%      0.00% # Class of committed instruction
system.cpu.commit.op_class_0::IntAlu          7555307     75.20%     75.20% # Class of committed instruction
system.cpu.commit.op_class_0::IntMult             384      0.00%     75.20% # Class of committed instruction
system.cpu.commit.op_class_0::IntDiv               94      0.00%     75.21% # Class of committed instruction
system.cpu.commit.op_class_0::FloatAdd              8      0.00%     75.21% # Class of committed instruction
system.cpu.commit.op_class_0::FloatCmp              0      0.00%     75.21% # Class of committed instruction
system.cpu.commit.op_class_0::FloatCvt              0      0.00%     75.21% # Class of committed instruction
system.cpu.commit.op_class_0::FloatMult             0      0.00%     75.21% # Class of committed instruction
system.cpu.commit.op_class_0::FloatMultAcc            0      0.00%     75.21% # Class of committed instruction
system.cpu.commit.op_class_0::FloatDiv              0      0.00%     75.21% # Class of committed instruction
system.cpu.commit.op_class_0::FloatMisc            32      0.00%     75.21% # Class of committed instruction
system.cpu.commit.op_class_0::FloatSqrt             0      0.00%     75.21% # Class of committed instruction
system.cpu.commit.op_class_0::SimdAdd              15      0.00%     75.21% # Class of committed instruction
system.cpu.commit.op_class_0::SimdAddAcc            0      0.00%     75.21% # Class of committed instruction
system.cpu.commit.op_class_0::SimdAlu              10      0.00%     75.21% # Class of committed instruction
system.cpu.commit.op_class_0::SimdCmp              12      0.00%     75.21% # Class of committed instruction
system.cpu.commit.op_class_0::SimdCvt               0      0.00%     75.21% # Class of committed instruction
system.cpu.commit.op_class_0::SimdMisc             72      0.00%     75.21% # Class of committed instruction
system.cpu.commit.op_class_0::SimdMult              0      0.00%     75.21% # Class of committed instruction
system.cpu.commit.op_class_0::SimdMultAcc            0      0.00%     75.21% # Class of committed instruction
system.cpu.commit.op_class_0::SimdShift             0      0.00%     75.21% # Class of committed instruction
system.cpu.commit.op_class_0::SimdShiftAcc            0      0.00%     75.21% # Class of committed instruction
system.cpu.commit.op_class_0::SimdDiv               0      0.00%     75.21% # Class of committed instruction
system.cpu.commit.op_class_0::SimdSqrt              0      0.00%     75.21% # Class of committed instruction
system.cpu.commit.op_class_0::SimdFloatAdd            0      0.00%     75.21% # Class of committed instruction
system.cpu.commit.op_class_0::SimdFloatAlu            0      0.00%     75.21% # Class of committed instruction
system.cpu.commit.op_class_0::SimdFloatCmp            0      0.00%     75.21% # Class of committed instruction
system.cpu.commit.op_class_0::SimdFloatCvt            0      0.00%     75.21% # Class of committed instruction
system.cpu.commit.op_class_0::SimdFloatDiv            0      0.00%     75.21% # Class of committed instruction
system.cpu.commit.op_class_0::SimdFloatMisc            0      0.00%     75.21% # Class of committed instruction
system.cpu.commit.op_class_0::SimdFloatMult            0      0.00%     75.21% # Class of committed instruction
system.cpu.commit.op_class_0::SimdFloatMultAcc            0      0.00%     75.21% # Class of committed instruction
system.cpu.commit.op_class_0::SimdFloatSqrt            0      0.00%     75.21% # Class of committed instruction
system.cpu.commit.op_class_0::SimdReduceAdd            0      0.00%     75.21% # Class of committed instruction
system.cpu.commit.op_class_0::SimdReduceAlu            0      0.00%     75.21% # Class of committed instruction
system.cpu.commit.op_class_0::SimdReduceCmp            0      0.00%     75.21% # Class of committed instruction
system.cpu.commit.op_class_0::SimdFloatReduceAdd            0      0.00%     75.21% # Class of committed instruction
system.cpu.commit.op_class_0::SimdFloatReduceCmp            0      0.00%     75.21% # Class of committed instruction
system.cpu.commit.op_class_0::SimdAes               0      0.00%     75.21% # Class of committed instruction
system.cpu.commit.op_class_0::SimdAesMix            0      0.00%     75.21% # Class of committed instruction
system.cpu.commit.op_class_0::SimdSha1Hash            0      0.00%     75.21% # Class of committed instruction
system.cpu.commit.op_class_0::SimdSha1Hash2            0      0.00%     75.21% # Class of committed instruction
system.cpu.commit.op_class_0::SimdSha256Hash            0      0.00%     75.21% # Class of committed instruction
system.cpu.commit.op_class_0::SimdSha256Hash2            0      0.00%     75.21% # Class of committed instruction
system.cpu.commit.op_class_0::SimdShaSigma2            0      0.00%     75.21% # Class of committed instruction
system.cpu.commit.op_class_0::SimdShaSigma3            0      0.00%     75.21% # Class of committed instruction
system.cpu.commit.op_class_0::SimdPredAlu            0      0.00%     75.21% # Class of committed instruction
system.cpu.commit.op_class_0::MemRead           35385      0.35%     75.56% # Class of committed instruction
system.cpu.commit.op_class_0::MemWrite        2455478     24.44%    100.00% # Class of committed instruction
system.cpu.commit.op_class_0::FloatMemRead            0      0.00%    100.00% # Class of committed instruction
system.cpu.commit.op_class_0::FloatMemWrite            0      0.00%    100.00% # Class of committed instruction
system.cpu.commit.op_class_0::IprAccess             0      0.00%    100.00% # Class of committed instruction
system.cpu.commit.op_class_0::InstPrefetch            0      0.00%    100.00% # Class of committed instruction
system.cpu.commit.op_class_0::total          10046800                       # Class of committed instruction
system.cpu.commit.refs                        2490863                       # Number of memory references committed
system.cpu.commit.swp_count                         0                       # Number of s/w prefetches committed
system.cpu.commit.vec_insts                      2101                       # Number of committed Vector instructions.
system.cpu.committedInsts                    10000002                       # Number of Instructions Simulated
system.cpu.committedOps                      10027169                       # Number of Ops (including micro ops) Simulated
system.cpu.cpi                               1.743137                       # CPI: Cycles Per Instruction
system.cpu.cpi_total                         1.743137                       # CPI: Total CPI of All Threads
system.cpu.decode.BlockedCycles              15212360                       # Number of cycles decode is blocked
system.cpu.decode.BranchMispred                   607                       # Number of times decode detected a branch misprediction
system.cpu.decode.BranchResolved              2786370                       # Number of times decode resolved a branch
system.cpu.decode.DecodedInsts               11369507                       # Number of instructions handled by decode
system.cpu.decode.IdleCycles                   490459                       # Number of cycles decode is idle
system.cpu.decode.RunCycles                   1040789                       # Number of cycles decode is running
system.cpu.decode.SquashCycles                  26996                       # Number of cycles decode is squashing
system.cpu.decode.SquashedInsts                  2054                       # Number of squashed instructions handled by decode
system.cpu.decode.UnblockCycles                569211                       # Number of cycles decode is unblocking
system.cpu.dtb.accesses                             0                       # DTB accesses
system.cpu.dtb.align_faults                         0                       # Number of TLB faults due to alignment restrictions
system.cpu.dtb.domain_faults                        0                       # Number of TLB faults due to domain restrictions
system.cpu.dtb.flush_entries                        0                       # Number of entries that have been flushed from TLB
system.cpu.dtb.flush_tlb                            0                       # Number of times complete TLB was flushed
system.cpu.dtb.flush_tlb_asid                       0                       # Number of times TLB was flushed by ASID
system.cpu.dtb.flush_tlb_mva                        0                       # Number of times TLB was flushed by MVA
system.cpu.dtb.flush_tlb_mva_asid                   0                       # Number of times TLB was flushed by MVA & ASID
system.cpu.dtb.hits                                 0                       # DTB hits
system.cpu.dtb.inst_accesses                        0                       # ITB inst accesses
system.cpu.dtb.inst_hits                            0                       # ITB inst hits
system.cpu.dtb.inst_misses                          0                       # ITB inst misses
system.cpu.dtb.misses                               0                       # DTB misses
system.cpu.dtb.perms_faults                         0                       # Number of TLB faults due to permissions restrictions
system.cpu.dtb.prefetch_faults                      0                       # Number of TLB faults due to prefetch
system.cpu.dtb.read_accesses                        0                       # DTB read accesses
system.cpu.dtb.read_hits                            0                       # DTB read hits
system.cpu.dtb.read_misses                          0                       # DTB read misses
system.cpu.dtb.stage2_mmu.stage2_tlb.accesses            0                       # DTB accesses
system.cpu.dtb.stage2_mmu.stage2_tlb.align_faults            0                       # Number of TLB faults due to alignment restrictions
system.cpu.dtb.stage2_mmu.stage2_tlb.domain_faults            0                       # Number of TLB faults due to domain restrictions
system.cpu.dtb.stage2_mmu.stage2_tlb.flush_entries            0                       # Number of entries that have been flushed from TLB
system.cpu.dtb.stage2_mmu.stage2_tlb.flush_tlb            0                       # Number of times complete TLB was flushed
system.cpu.dtb.stage2_mmu.stage2_tlb.flush_tlb_asid            0                       # Number of times TLB was flushed by ASID
system.cpu.dtb.stage2_mmu.stage2_tlb.flush_tlb_mva            0                       # Number of times TLB was flushed by MVA
system.cpu.dtb.stage2_mmu.stage2_tlb.flush_tlb_mva_asid            0                       # Number of times TLB was flushed by MVA & ASID
system.cpu.dtb.stage2_mmu.stage2_tlb.hits            0                       # DTB hits
system.cpu.dtb.stage2_mmu.stage2_tlb.inst_accesses            0                       # ITB inst accesses
system.cpu.dtb.stage2_mmu.stage2_tlb.inst_hits            0                       # ITB inst hits
system.cpu.dtb.stage2_mmu.stage2_tlb.inst_misses            0                       # ITB inst misses
system.cpu.dtb.stage2_mmu.stage2_tlb.misses            0                       # DTB misses
system.cpu.dtb.stage2_mmu.stage2_tlb.perms_faults            0                       # Number of TLB faults due to permissions restrictions
system.cpu.dtb.stage2_mmu.stage2_tlb.prefetch_faults            0                       # Number of TLB faults due to prefetch
system.cpu.dtb.stage2_mmu.stage2_tlb.read_accesses            0                       # DTB read accesses
system.cpu.dtb.stage2_mmu.stage2_tlb.read_hits            0                       # DTB read hits
system.cpu.dtb.stage2_mmu.stage2_tlb.read_misses            0                       # DTB read misses
system.cpu.dtb.stage2_mmu.stage2_tlb.walker.walkRequestOrigin_Requested::Data            0                       # Table walker requests started/completed, data/inst
system.cpu.dtb.stage2_mmu.stage2_tlb.walker.walkRequestOrigin_Requested::Inst            0                       # Table walker requests started/completed, data/inst
system.cpu.dtb.stage2_mmu.stage2_tlb.walker.walkRequestOrigin_Requested::total            0                       # Table walker requests started/completed, data/inst
system.cpu.dtb.stage2_mmu.stage2_tlb.walker.walkRequestOrigin_Completed::Data            0                       # Table walker requests started/completed, data/inst
system.cpu.dtb.stage2_mmu.stage2_tlb.walker.walkRequestOrigin_Completed::Inst            0                       # Table walker requests started/completed, data/inst
system.cpu.dtb.stage2_mmu.stage2_tlb.walker.walkRequestOrigin_Completed::total            0                       # Table walker requests started/completed, data/inst
system.cpu.dtb.stage2_mmu.stage2_tlb.walker.walkRequestOrigin::total            0                       # Table walker requests started/completed, data/inst
system.cpu.dtb.stage2_mmu.stage2_tlb.walker.walks            0                       # Table walker walks requested
system.cpu.dtb.stage2_mmu.stage2_tlb.write_accesses            0                       # DTB write accesses
system.cpu.dtb.stage2_mmu.stage2_tlb.write_hits            0                       # DTB write hits
system.cpu.dtb.stage2_mmu.stage2_tlb.write_misses            0                       # DTB write misses
system.cpu.dtb.walker.walkRequestOrigin_Requested::Data            0                       # Table walker requests started/completed, data/inst
system.cpu.dtb.walker.walkRequestOrigin_Requested::Inst            0                       # Table walker requests started/completed, data/inst
system.cpu.dtb.walker.walkRequestOrigin_Requested::total            0                       # Table walker requests started/completed, data/inst
system.cpu.dtb.walker.walkRequestOrigin_Completed::Data            0                       # Table walker requests started/completed, data/inst
system.cpu.dtb.walker.walkRequestOrigin_Completed::Inst            0                       # Table walker requests started/completed, data/inst
system.cpu.dtb.walker.walkRequestOrigin_Completed::total            0                       # Table walker requests started/completed, data/inst
system.cpu.dtb.walker.walkRequestOrigin::total            0                       # Table walker requests started/completed, data/inst
system.cpu.dtb.walker.walks                         0                       # Table walker walks requested
system.cpu.dtb.write_accesses                       0                       # DTB write accesses
system.cpu.dtb.write_hits                           0                       # DTB write hits
system.cpu.dtb.write_misses                         0                       # DTB write misses
system.cpu.fetch.Branches                     3054028                       # Number of branches that fetch encountered
system.cpu.fetch.CacheLines                     32165                       # Number of cache lines fetched
system.cpu.fetch.Cycles                      17132588                       # Number of cycles fetch has run and was not squashing or blocked
system.cpu.fetch.IcacheSquashes                  1713                       # Number of outstanding Icache misses that were squashed
system.cpu.fetch.IcacheWaitRetryStallCycles           51                       # Number of stall cycles due to full MSHR
system.cpu.fetch.Insts                       12231376                       # Number of instructions fetch has processed
system.cpu.fetch.MiscStallCycles                   27                       # Number of cycles fetch has spent waiting on interrupts, or bad addresses, or out of MSHRs
system.cpu.fetch.PendingTrapStallCycles           132                       # Number of stall cycles due to pending traps
system.cpu.fetch.SquashCycles                   55188                       # Number of cycles fetch has spent squashing
system.cpu.fetch.branchRate                  0.175203                       # Number of branch fetches per cycle
system.cpu.fetch.icacheStallCycles             179423                       # Number of cycles fetch is stalled on an Icache miss
system.cpu.fetch.predictedBranches            3014694                       # Number of branches that fetch has predicted taken
system.cpu.fetch.rate                        0.701687                       # Number of inst fetches per cycle
system.cpu.fetch.rateDist::samples           17339815                       # Number of instructions fetched each cycle (Total)
system.cpu.fetch.rateDist::mean              0.707264                       # Number of instructions fetched each cycle (Total)
system.cpu.fetch.rateDist::stdev             1.548338                       # Number of instructions fetched each cycle (Total)
system.cpu.fetch.rateDist::underflows               0      0.00%      0.00% # Number of instructions fetched each cycle (Total)
system.cpu.fetch.rateDist::0                 14306493     82.51%     82.51% # Number of instructions fetched each cycle (Total)
system.cpu.fetch.rateDist::1                     4432      0.03%     82.53% # Number of instructions fetched each cycle (Total)
system.cpu.fetch.rateDist::2                     4776      0.03%     82.56% # Number of instructions fetched each cycle (Total)
system.cpu.fetch.rateDist::3                     5953      0.03%     82.59% # Number of instructions fetched each cycle (Total)
system.cpu.fetch.rateDist::4                  2972454     17.14%     99.74% # Number of instructions fetched each cycle (Total)
system.cpu.fetch.rateDist::5                     4922      0.03%     99.76% # Number of instructions fetched each cycle (Total)
system.cpu.fetch.rateDist::6                     2236      0.01%     99.78% # Number of instructions fetched each cycle (Total)
system.cpu.fetch.rateDist::7                     4244      0.02%     99.80% # Number of instructions fetched each cycle (Total)
system.cpu.fetch.rateDist::8                    34305      0.20%    100.00% # Number of instructions fetched each cycle (Total)
system.cpu.fetch.rateDist::overflows                0      0.00%    100.00% # Number of instructions fetched each cycle (Total)
system.cpu.fetch.rateDist::min_value                0                       # Number of instructions fetched each cycle (Total)
system.cpu.fetch.rateDist::max_value                8                       # Number of instructions fetched each cycle (Total)
system.cpu.fetch.rateDist::total             17339815                       # Number of instructions fetched each cycle (Total)
system.cpu.icache.prefetcher.num_hwpf_issued        18803                       # number of hwpf issued
system.cpu.icache.prefetcher.pfBufferHit          851                       # number of redundant prefetches already in prefetch queue
system.cpu.icache.prefetcher.pfIdentified        20290                       # number of prefetch candidates identified
system.cpu.icache.prefetcher.pfInCache              0                       # number of redundant prefetches already in cache/mshr dropped
system.cpu.icache.prefetcher.pfRemovedFull            0                       # number of prefetches dropped due to prefetch queue size
system.cpu.icache.prefetcher.pfSpanPage         21741                       # number of prefetches that crossed the page
system.cpu.idleCycles                           91563                       # Total number of cycles that the CPU has spent unscheduled due to idling
system.cpu.iew.branchMispredicts                22849                       # Number of branch mispredicts detected at execute
system.cpu.iew.exec_branches                  2685202                       # Number of branches executed
system.cpu.iew.exec_nop                         20723                       # number of nop insts executed
system.cpu.iew.exec_rate                     0.621112                       # Inst execution rate
system.cpu.iew.exec_refs                      2699058                       # number of memory reference insts executed
system.cpu.iew.exec_stores                    2659315                       # Number of stores executed
system.cpu.iew.exec_swp                             0                       # number of swp insts executed
system.cpu.iew.iewBlockCycles                   83289                       # Number of cycles IEW is blocking
system.cpu.iew.iewDispLoadInsts                 40286                       # Number of dispatched load instructions
system.cpu.iew.iewDispNonSpecInsts                205                       # Number of dispatched non-speculative instructions
system.cpu.iew.iewDispSquashedInsts             20226                       # Number of squashed instructions skipped by dispatch
system.cpu.iew.iewDispStoreInsts              2683144                       # Number of dispatched store instructions
system.cpu.iew.iewDispatchedInsts            10979078                       # Number of instructions dispatched to IQ
system.cpu.iew.iewExecLoadInsts                 39743                       # Number of load instructions executed
system.cpu.iew.iewExecSquashedInsts             41009                       # Number of squashed instructions skipped in execute
system.cpu.iew.iewExecutedInsts              10826835                       # Number of executed instructions
system.cpu.iew.iewIQFullEvents                     13                       # Number of times the IQ has become full, causing a stall
system.cpu.iew.iewIdleCycles                        0                       # Number of cycles IEW is idle
system.cpu.iew.iewLSQFullEvents                   568                       # Number of times the LSQ has become full, causing a stall
system.cpu.iew.iewSquashCycles                  26996                       # Number of cycles IEW is squashing
system.cpu.iew.iewUnblockCycles                   578                       # Number of cycles IEW is unblocking
system.cpu.iew.lsq.thread0.blockedLoads             0                       # Number of blocked loads due to partial load-store forwarding
system.cpu.iew.lsq.thread0.cacheBlocked        178006                       # Number of times an access to memory failed due to the cache being blocked
system.cpu.iew.lsq.thread0.forwLoads             2266                       # Number of loads that had data forwarded from stores
system.cpu.iew.lsq.thread0.ignoredResponses            3                       # Number of memory responses ignored because the instruction is squashed
system.cpu.iew.lsq.thread0.invAddrLoads             0                       # Number of loads ignored due to an invalid address
system.cpu.iew.lsq.thread0.invAddrSwpfs             0                       # Number of software prefetches ignored due to an invalid address
system.cpu.iew.lsq.thread0.memOrderViolation           36                       # Number of memory ordering violations
system.cpu.iew.lsq.thread0.rescheduledLoads          727                       # Number of loads that were rescheduled
system.cpu.iew.lsq.thread0.squashedLoads         4901                       # Number of loads squashed
system.cpu.iew.lsq.thread0.squashedStores       227662                       # Number of stores squashed
system.cpu.iew.memOrderViolationEvents             36                       # Number of memory order violations
system.cpu.iew.predictedNotTakenIncorrect         1799                       # Number of branches that were predicted not taken incorrectly
system.cpu.iew.predictedTakenIncorrect          21050                       # Number of branches that were predicted taken incorrectly
system.cpu.iew.wb_consumers                  14877736                       # num instructions consuming a value
system.cpu.iew.wb_count                      10706456                       # cumulative count of insts written-back
system.cpu.iew.wb_fanout                     0.364787                       # average fanout of values written-back
system.cpu.iew.wb_producers                   5427203                       # num instructions producing a value
system.cpu.iew.wb_rate                       0.614206                       # insts written-back per cycle
system.cpu.iew.wb_sent                       10824913                       # cumulative count of insts sent to commit
system.cpu.int_regfile_reads                 13515183                       # number of integer regfile reads
system.cpu.int_regfile_writes                 5490955                       # number of integer regfile writes
system.cpu.ipc                               0.573678                       # IPC: Instructions Per Cycle
system.cpu.ipc_total                         0.573678                       # IPC: Total IPC of All Threads
system.cpu.iq.FU_type_0::No_OpClass                26      0.00%      0.00% # Type of FU issued
system.cpu.iq.FU_type_0::IntAlu               8156241     75.05%     75.05% # Type of FU issued
system.cpu.iq.FU_type_0::IntMult                  386      0.00%     75.05% # Type of FU issued
system.cpu.iq.FU_type_0::IntDiv                    96      0.00%     75.05% # Type of FU issued
system.cpu.iq.FU_type_0::FloatAdd                  11      0.00%     75.05% # Type of FU issued
system.cpu.iq.FU_type_0::FloatCmp                   0      0.00%     75.05% # Type of FU issued
system.cpu.iq.FU_type_0::FloatCvt                   0      0.00%     75.05% # Type of FU issued
system.cpu.iq.FU_type_0::FloatMult                  0      0.00%     75.05% # Type of FU issued
system.cpu.iq.FU_type_0::FloatMultAcc               0      0.00%     75.05% # Type of FU issued
system.cpu.iq.FU_type_0::FloatDiv                   0      0.00%     75.05% # Type of FU issued
system.cpu.iq.FU_type_0::FloatMisc                 43      0.00%     75.05% # Type of FU issued
system.cpu.iq.FU_type_0::FloatSqrt                  0      0.00%     75.05% # Type of FU issued
system.cpu.iq.FU_type_0::SimdAdd                   21      0.00%     75.05% # Type of FU issued
system.cpu.iq.FU_type_0::SimdAddAcc                 0      0.00%     75.05% # Type of FU issued
system.cpu.iq.FU_type_0::SimdAlu                   14      0.00%     75.05% # Type of FU issued
system.cpu.iq.FU_type_0::SimdCmp                   16      0.00%     75.05% # Type of FU issued
system.cpu.iq.FU_type_0::SimdCvt                    0      0.00%     75.05% # Type of FU issued
system.cpu.iq.FU_type_0::SimdMisc                  80      0.00%     75.06% # Type of FU issued
system.cpu.iq.FU_type_0::SimdMult                   0      0.00%     75.06% # Type of FU issued
system.cpu.iq.FU_type_0::SimdMultAcc                0      0.00%     75.06% # Type of FU issued
system.cpu.iq.FU_type_0::SimdShift                  0      0.00%     75.06% # Type of FU issued
system.cpu.iq.FU_type_0::SimdShiftAcc               0      0.00%     75.06% # Type of FU issued
system.cpu.iq.FU_type_0::SimdDiv                    0      0.00%     75.06% # Type of FU issued
system.cpu.iq.FU_type_0::SimdSqrt                   0      0.00%     75.06% # Type of FU issued
system.cpu.iq.FU_type_0::SimdFloatAdd               0      0.00%     75.06% # Type of FU issued
system.cpu.iq.FU_type_0::SimdFloatAlu               0      0.00%     75.06% # Type of FU issued
system.cpu.iq.FU_type_0::SimdFloatCmp               0      0.00%     75.06% # Type of FU issued
system.cpu.iq.FU_type_0::SimdFloatCvt               0      0.00%     75.06% # Type of FU issued
system.cpu.iq.FU_type_0::SimdFloatDiv               0      0.00%     75.06% # Type of FU issued
system.cpu.iq.FU_type_0::SimdFloatMisc              0      0.00%     75.06% # Type of FU issued
system.cpu.iq.FU_type_0::SimdFloatMult              0      0.00%     75.06% # Type of FU issued
system.cpu.iq.FU_type_0::SimdFloatMultAcc            0      0.00%     75.06% # Type of FU issued
system.cpu.iq.FU_type_0::SimdFloatSqrt              0      0.00%     75.06% # Type of FU issued
system.cpu.iq.FU_type_0::SimdReduceAdd              0      0.00%     75.06% # Type of FU issued
system.cpu.iq.FU_type_0::SimdReduceAlu              0      0.00%     75.06% # Type of FU issued
system.cpu.iq.FU_type_0::SimdReduceCmp              0      0.00%     75.06% # Type of FU issued
system.cpu.iq.FU_type_0::SimdFloatReduceAdd            0      0.00%     75.06% # Type of FU issued
system.cpu.iq.FU_type_0::SimdFloatReduceCmp            0      0.00%     75.06% # Type of FU issued
system.cpu.iq.FU_type_0::SimdAes                    0      0.00%     75.06% # Type of FU issued
system.cpu.iq.FU_type_0::SimdAesMix                 0      0.00%     75.06% # Type of FU issued
system.cpu.iq.FU_type_0::SimdSha1Hash               0      0.00%     75.06% # Type of FU issued
system.cpu.iq.FU_type_0::SimdSha1Hash2              0      0.00%     75.06% # Type of FU issued
system.cpu.iq.FU_type_0::SimdSha256Hash             0      0.00%     75.06% # Type of FU issued
system.cpu.iq.FU_type_0::SimdSha256Hash2            0      0.00%     75.06% # Type of FU issued
system.cpu.iq.FU_type_0::SimdShaSigma2              0      0.00%     75.06% # Type of FU issued
system.cpu.iq.FU_type_0::SimdShaSigma3              0      0.00%     75.06% # Type of FU issued
system.cpu.iq.FU_type_0::SimdPredAlu                0      0.00%     75.06% # Type of FU issued
system.cpu.iq.FU_type_0::MemRead                40360      0.37%     75.43% # Type of FU issued
system.cpu.iq.FU_type_0::MemWrite             2670554     24.57%    100.00% # Type of FU issued
system.cpu.iq.FU_type_0::FloatMemRead               0      0.00%    100.00% # Type of FU issued
system.cpu.iq.FU_type_0::FloatMemWrite              0      0.00%    100.00% # Type of FU issued
system.cpu.iq.FU_type_0::IprAccess                  0      0.00%    100.00% # Type of FU issued
system.cpu.iq.FU_type_0::InstPrefetch               0      0.00%    100.00% # Type of FU issued
system.cpu.iq.FU_type_0::total               10867848                       # Type of FU issued
system.cpu.iq.fp_alu_accesses                       0                       # Number of floating point alu accesses
system.cpu.iq.fp_inst_queue_reads                   0                       # Number of floating instruction queue reads
system.cpu.iq.fp_inst_queue_wakeup_accesses            0                       # Number of floating instruction queue wakeup accesses
system.cpu.iq.fp_inst_queue_writes                  0                       # Number of floating instruction queue writes
system.cpu.iq.fu_busy_cnt                        3252                       # FU busy when requested
system.cpu.iq.fu_busy_rate                   0.000299                       # FU busy rate (busy events/executed inst)
system.cpu.iq.fu_full::No_OpClass                   0      0.00%      0.00% # attempts to use FU when none available
system.cpu.iq.fu_full::IntAlu                     765     23.52%     23.52% # attempts to use FU when none available
system.cpu.iq.fu_full::IntMult                      2      0.06%     23.59% # attempts to use FU when none available
system.cpu.iq.fu_full::IntDiv                       0      0.00%     23.59% # attempts to use FU when none available
system.cpu.iq.fu_full::FloatAdd                     0      0.00%     23.59% # attempts to use FU when none available
system.cpu.iq.fu_full::FloatCmp                     0      0.00%     23.59% # attempts to use FU when none available
system.cpu.iq.fu_full::FloatCvt                     0      0.00%     23.59% # attempts to use FU when none available
system.cpu.iq.fu_full::FloatMult                    0      0.00%     23.59% # attempts to use FU when none available
system.cpu.iq.fu_full::FloatMultAcc                 0      0.00%     23.59% # attempts to use FU when none available
system.cpu.iq.fu_full::FloatDiv                     0      0.00%     23.59% # attempts to use FU when none available
system.cpu.iq.fu_full::FloatMisc                    0      0.00%     23.59% # attempts to use FU when none available
system.cpu.iq.fu_full::FloatSqrt                    0      0.00%     23.59% # attempts to use FU when none available
system.cpu.iq.fu_full::SimdAdd                      0      0.00%     23.59% # attempts to use FU when none available
system.cpu.iq.fu_full::SimdAddAcc                   0      0.00%     23.59% # attempts to use FU when none available
system.cpu.iq.fu_full::SimdAlu                      1      0.03%     23.62% # attempts to use FU when none available
system.cpu.iq.fu_full::SimdCmp                      2      0.06%     23.68% # attempts to use FU when none available
system.cpu.iq.fu_full::SimdCvt                      0      0.00%     23.68% # attempts to use FU when none available
system.cpu.iq.fu_full::SimdMisc                     0      0.00%     23.68% # attempts to use FU when none available
system.cpu.iq.fu_full::SimdMult                     0      0.00%     23.68% # attempts to use FU when none available
system.cpu.iq.fu_full::SimdMultAcc                  0      0.00%     23.68% # attempts to use FU when none available
system.cpu.iq.fu_full::SimdShift                    0      0.00%     23.68% # attempts to use FU when none available
system.cpu.iq.fu_full::SimdShiftAcc                 0      0.00%     23.68% # attempts to use FU when none available
system.cpu.iq.fu_full::SimdDiv                      0      0.00%     23.68% # attempts to use FU when none available
system.cpu.iq.fu_full::SimdSqrt                     0      0.00%     23.68% # attempts to use FU when none available
system.cpu.iq.fu_full::SimdFloatAdd                 0      0.00%     23.68% # attempts to use FU when none available
system.cpu.iq.fu_full::SimdFloatAlu                 0      0.00%     23.68% # attempts to use FU when none available
system.cpu.iq.fu_full::SimdFloatCmp                 0      0.00%     23.68% # attempts to use FU when none available
system.cpu.iq.fu_full::SimdFloatCvt                 0      0.00%     23.68% # attempts to use FU when none available
system.cpu.iq.fu_full::SimdFloatDiv                 0      0.00%     23.68% # attempts to use FU when none available
system.cpu.iq.fu_full::SimdFloatMisc                0      0.00%     23.68% # attempts to use FU when none available
system.cpu.iq.fu_full::SimdFloatMult                0      0.00%     23.68% # attempts to use FU when none available
system.cpu.iq.fu_full::SimdFloatMultAcc             0      0.00%     23.68% # attempts to use FU when none available
system.cpu.iq.fu_full::SimdFloatSqrt                0      0.00%     23.68% # attempts to use FU when none available
system.cpu.iq.fu_full::SimdReduceAdd                0      0.00%     23.68% # attempts to use FU when none available
system.cpu.iq.fu_full::SimdReduceAlu                0      0.00%     23.68% # attempts to use FU when none available
system.cpu.iq.fu_full::SimdReduceCmp                0      0.00%     23.68% # attempts to use FU when none available
system.cpu.iq.fu_full::SimdFloatReduceAdd            0      0.00%     23.68% # attempts to use FU when none available
system.cpu.iq.fu_full::SimdFloatReduceCmp            0      0.00%     23.68% # attempts to use FU when none available
system.cpu.iq.fu_full::SimdAes                      0      0.00%     23.68% # attempts to use FU when none available
system.cpu.iq.fu_full::SimdAesMix                   0      0.00%     23.68% # attempts to use FU when none available
system.cpu.iq.fu_full::SimdSha1Hash                 0      0.00%     23.68% # attempts to use FU when none available
system.cpu.iq.fu_full::SimdSha1Hash2                0      0.00%     23.68% # attempts to use FU when none available
system.cpu.iq.fu_full::SimdSha256Hash               0      0.00%     23.68% # attempts to use FU when none available
system.cpu.iq.fu_full::SimdSha256Hash2              0      0.00%     23.68% # attempts to use FU when none available
system.cpu.iq.fu_full::SimdShaSigma2                0      0.00%     23.68% # attempts to use FU when none available
system.cpu.iq.fu_full::SimdShaSigma3                0      0.00%     23.68% # attempts to use FU when none available
system.cpu.iq.fu_full::SimdPredAlu                  0      0.00%     23.68% # attempts to use FU when none available
system.cpu.iq.fu_full::MemRead                   1425     43.82%     67.50% # attempts to use FU when none available
system.cpu.iq.fu_full::MemWrite                  1057     32.50%    100.00% # attempts to use FU when none available
system.cpu.iq.fu_full::FloatMemRead                 0      0.00%    100.00% # attempts to use FU when none available
system.cpu.iq.fu_full::FloatMemWrite                0      0.00%    100.00% # attempts to use FU when none available
system.cpu.iq.fu_full::IprAccess                    0      0.00%    100.00% # attempts to use FU when none available
system.cpu.iq.fu_full::InstPrefetch                 0      0.00%    100.00% # attempts to use FU when none available
system.cpu.iq.int_alu_accesses               10868426                       # Number of integer alu accesses
system.cpu.iq.int_inst_queue_reads           39073827                       # Number of integer instruction queue reads
system.cpu.iq.int_inst_queue_wakeup_accesses     10704181                       # Number of integer instruction queue wakeup accesses
system.cpu.iq.int_inst_queue_writes          11886268                       # Number of integer instruction queue writes
system.cpu.iq.iqInstsAdded                   10958150                       # Number of instructions added to the IQ (excludes non-spec)
system.cpu.iq.iqInstsIssued                  10867848                       # Number of instructions issued
system.cpu.iq.iqNonSpecInstsAdded                 205                       # Number of non-speculative instructions added to the IQ
system.cpu.iq.iqSquashedInstsExamined          931168                       # Number of squashed instructions iterated over during squash; mainly for profiling
system.cpu.iq.iqSquashedInstsIssued               311                       # Number of squashed instructions issued
system.cpu.iq.iqSquashedNonSpecRemoved             31                       # Number of squashed non-spec instructions that were removed
system.cpu.iq.iqSquashedOperandsExamined       470687                       # Number of squashed operands that are examined and possibly removed from graph
system.cpu.iq.issued_per_cycle::samples      17339815                       # Number of insts issued each cycle
system.cpu.iq.issued_per_cycle::mean         0.626757                       # Number of insts issued each cycle
system.cpu.iq.issued_per_cycle::stdev        1.331135                       # Number of insts issued each cycle
system.cpu.iq.issued_per_cycle::underflows            0      0.00%      0.00% # Number of insts issued each cycle
system.cpu.iq.issued_per_cycle::0            13777125     79.45%     79.45% # Number of insts issued each cycle
system.cpu.iq.issued_per_cycle::1              507496      2.93%     82.38% # Number of insts issued each cycle
system.cpu.iq.issued_per_cycle::2              544600      3.14%     85.52% # Number of insts issued each cycle
system.cpu.iq.issued_per_cycle::3              796008      4.59%     90.11% # Number of insts issued each cycle
system.cpu.iq.issued_per_cycle::4             1700363      9.81%     99.92% # Number of insts issued each cycle
system.cpu.iq.issued_per_cycle::5                7158      0.04%     99.96% # Number of insts issued each cycle
system.cpu.iq.issued_per_cycle::6                4436      0.03%     99.98% # Number of insts issued each cycle
system.cpu.iq.issued_per_cycle::7                1762      0.01%     99.99% # Number of insts issued each cycle
system.cpu.iq.issued_per_cycle::8                 867      0.01%    100.00% # Number of insts issued each cycle
system.cpu.iq.issued_per_cycle::overflows            0      0.00%    100.00% # Number of insts issued each cycle
system.cpu.iq.issued_per_cycle::min_value            0                       # Number of insts issued each cycle
system.cpu.iq.issued_per_cycle::max_value            8                       # Number of insts issued each cycle
system.cpu.iq.issued_per_cycle::total        17339815                       # Number of insts issued each cycle
system.cpu.iq.rate                           0.623465                       # Inst issue rate
system.cpu.iq.vec_alu_accesses                   2648                       # Number of vector alu accesses
system.cpu.iq.vec_inst_queue_reads               5243                       # Number of vector instruction queue reads
system.cpu.iq.vec_inst_queue_wakeup_accesses         2275                       # Number of vector instruction queue wakeup accesses
system.cpu.iq.vec_inst_queue_writes              3289                       # Number of vector instruction queue writes
system.cpu.itb.accesses                             0                       # DTB accesses
system.cpu.itb.align_faults                         0                       # Number of TLB faults due to alignment restrictions
system.cpu.itb.domain_faults                        0                       # Number of TLB faults due to domain restrictions
system.cpu.itb.flush_entries                        0                       # Number of entries that have been flushed from TLB
system.cpu.itb.flush_tlb                            0                       # Number of times complete TLB was flushed
system.cpu.itb.flush_tlb_asid                       0                       # Number of times TLB was flushed by ASID
system.cpu.itb.flush_tlb_mva                        0                       # Number of times TLB was flushed by MVA
system.cpu.itb.flush_tlb_mva_asid                   0                       # Number of times TLB was flushed by MVA & ASID
system.cpu.itb.hits                                 0                       # DTB hits
system.cpu.itb.inst_accesses                        0                       # ITB inst accesses
system.cpu.itb.inst_hits                            0                       # ITB inst hits
system.cpu.itb.inst_misses                          0                       # ITB inst misses
system.cpu.itb.misses                               0                       # DTB misses
system.cpu.itb.perms_faults                         0                       # Number of TLB faults due to permissions restrictions
system.cpu.itb.prefetch_faults                      0                       # Number of TLB faults due to prefetch
system.cpu.itb.read_accesses                        0                       # DTB read accesses
system.cpu.itb.read_hits                            0                       # DTB read hits
system.cpu.itb.read_misses                          0                       # DTB read misses
system.cpu.itb.stage2_mmu.stage2_tlb.accesses            0                       # DTB accesses
system.cpu.itb.stage2_mmu.stage2_tlb.align_faults            0                       # Number of TLB faults due to alignment restrictions
system.cpu.itb.stage2_mmu.stage2_tlb.domain_faults            0                       # Number of TLB faults due to domain restrictions
system.cpu.itb.stage2_mmu.stage2_tlb.flush_entries            0                       # Number of entries that have been flushed from TLB
system.cpu.itb.stage2_mmu.stage2_tlb.flush_tlb            0                       # Number of times complete TLB was flushed
system.cpu.itb.stage2_mmu.stage2_tlb.flush_tlb_asid            0                       # Number of times TLB was flushed by ASID
system.cpu.itb.stage2_mmu.stage2_tlb.flush_tlb_mva            0                       # Number of times TLB was flushed by MVA
system.cpu.itb.stage2_mmu.stage2_tlb.flush_tlb_mva_asid            0                       # Number of times TLB was flushed by MVA & ASID
system.cpu.itb.stage2_mmu.stage2_tlb.hits            0                       # DTB hits
system.cpu.itb.stage2_mmu.stage2_tlb.inst_accesses            0                       # ITB inst accesses
system.cpu.itb.stage2_mmu.stage2_tlb.inst_hits            0                       # ITB inst hits
system.cpu.itb.stage2_mmu.stage2_tlb.inst_misses            0                       # ITB inst misses
system.cpu.itb.stage2_mmu.stage2_tlb.misses            0                       # DTB misses
system.cpu.itb.stage2_mmu.stage2_tlb.perms_faults            0                       # Number of TLB faults due to permissions restrictions
system.cpu.itb.stage2_mmu.stage2_tlb.prefetch_faults            0                       # Number of TLB faults due to prefetch
system.cpu.itb.stage2_mmu.stage2_tlb.read_accesses            0                       # DTB read accesses
system.cpu.itb.stage2_mmu.stage2_tlb.read_hits            0                       # DTB read hits
system.cpu.itb.stage2_mmu.stage2_tlb.read_misses            0                       # DTB read misses
system.cpu.itb.stage2_mmu.stage2_tlb.walker.walkRequestOrigin_Requested::Data            0                       # Table walker requests started/completed, data/inst
system.cpu.itb.stage2_mmu.stage2_tlb.walker.walkRequestOrigin_Requested::Inst            0                       # Table walker requests started/completed, data/inst
system.cpu.itb.stage2_mmu.stage2_tlb.walker.walkRequestOrigin_Requested::total            0                       # Table walker requests started/completed, data/inst
system.cpu.itb.stage2_mmu.stage2_tlb.walker.walkRequestOrigin_Completed::Data            0                       # Table walker requests started/completed, data/inst
system.cpu.itb.stage2_mmu.stage2_tlb.walker.walkRequestOrigin_Completed::Inst            0                       # Table walker requests started/completed, data/inst
system.cpu.itb.stage2_mmu.stage2_tlb.walker.walkRequestOrigin_Completed::total            0                       # Table walker requests started/completed, data/inst
system.cpu.itb.stage2_mmu.stage2_tlb.walker.walkRequestOrigin::total            0                       # Table walker requests started/completed, data/inst
system.cpu.itb.stage2_mmu.stage2_tlb.walker.walks            0                       # Table walker walks requested
system.cpu.itb.stage2_mmu.stage2_tlb.write_accesses            0                       # DTB write accesses
system.cpu.itb.stage2_mmu.stage2_tlb.write_hits            0                       # DTB write hits
system.cpu.itb.stage2_mmu.stage2_tlb.write_misses            0                       # DTB write misses
system.cpu.itb.walker.walkRequestOrigin_Requested::Data            0                       # Table walker requests started/completed, data/inst
system.cpu.itb.walker.walkRequestOrigin_Requested::Inst            0                       # Table walker requests started/completed, data/inst
system.cpu.itb.walker.walkRequestOrigin_Requested::total            0                       # Table walker requests started/completed, data/inst
system.cpu.itb.walker.walkRequestOrigin_Completed::Data            0                       # Table walker requests started/completed, data/inst
system.cpu.itb.walker.walkRequestOrigin_Completed::Inst            0                       # Table walker requests started/completed, data/inst
system.cpu.itb.walker.walkRequestOrigin_Completed::total            0                       # Table walker requests started/completed, data/inst
system.cpu.itb.walker.walkRequestOrigin::total            0                       # Table walker requests started/completed, data/inst
system.cpu.itb.walker.walks                         0                       # Table walker walks requested
system.cpu.itb.write_accesses                       0                       # DTB write accesses
system.cpu.itb.write_hits                           0                       # DTB write hits
system.cpu.itb.write_misses                         0                       # DTB write misses
system.cpu.memDep0.conflictingLoads              1890                       # Number of conflicting loads.
system.cpu.memDep0.conflictingStores              842                       # Number of conflicting stores.
system.cpu.memDep0.insertedLoads                40286                       # Number of loads inserted to the mem dependence unit.
system.cpu.memDep0.insertedStores             2683144                       # Number of stores inserted to the mem dependence unit.
system.cpu.misc_regfile_reads                 8003268                       # number of misc regfile reads
system.cpu.misc_regfile_writes                    561                       # number of misc regfile writes
system.cpu.numCycles                         17431378                       # number of cpu cycles simulated
system.cpu.numWorkItemsCompleted                    0                       # number of work items this cpu completed
system.cpu.numWorkItemsStarted                      0                       # number of work items this cpu started
system.cpu.rename.BlockCycles                   84133                       # Number of cycles rename is blocking
system.cpu.rename.CommittedMaps              12530631                       # Number of HB maps that are committed
system.cpu.rename.IQFullEvents                     46                       # Number of times rename has blocked due to IQ full
system.cpu.rename.IdleCycles                   791063                       # Number of cycles rename is idle
system.cpu.rename.LQFullEvents                    926                       # Number of times rename has blocked due to LQ full
system.cpu.rename.ROBFullEvents                     8                       # Number of times rename has blocked due to ROB full
system.cpu.rename.RenameLookups              22070111                       # Number of register rename lookups that rename has made
system.cpu.rename.RenamedInsts               11111348                       # Number of instructions processed by rename
system.cpu.rename.RenamedOperands            13855779                       # Number of destination operands rename has renamed
system.cpu.rename.RunCycles                   1299965                       # Number of cycles rename is running
system.cpu.rename.SQFullEvents               15125348                       # Number of times rename has blocked due to SQ full
system.cpu.rename.SquashCycles                  26996                       # Number of cycles rename is squashing
system.cpu.rename.UnblockCycles              15120433                       # Number of cycles rename is unblocking
system.cpu.rename.UndoneMaps                  1325113                       # Number of HB maps that are undone due to squashing
system.cpu.rename.int_rename_lookups         13823013                       # Number of integer rename lookups
system.cpu.rename.serializeStallCycles          17225                       # count of cycles rename stalled for serializing inst
system.cpu.rename.serializingInsts                804                       # count of serializing insts renamed
system.cpu.rename.skidInsts                   4489032                       # count of insts added to the skid buffer
system.cpu.rename.tempSerializingInsts            203                       # count of temporary serializing insts renamed
system.cpu.rename.vec_rename_lookups             2692                       # Number of vector rename lookups
system.cpu.rob.rob_reads                     27996994                       # The number of ROB reads
system.cpu.rob.rob_writes                    21783554                       # The number of ROB writes
system.cpu.timesIdled                            5118                       # Number of times that the entire CPU went into an idle state and unscheduled itself
system.cpu.vec_regfile_reads                     2222                       # number of vector regfile reads
system.cpu.vec_regfile_writes                     180                       # number of vector regfile writes
system.cpu.workload.numSyscalls                    35                       # Number of system calls
system.membus.snoop_filter.hit_multi_requests            0                       # Number of requests hitting in the snoop filter with multiple (>1) holders of the requested data.
system.membus.snoop_filter.hit_multi_snoops            0                       # Number of snoops hitting in the snoop filter with multiple (>1) holders of the requested data.
system.membus.snoop_filter.hit_single_requests       271929                       # Number of requests hitting in the snoop filter with a single holder of the requested data.
system.membus.snoop_filter.hit_single_snoops            0                       # Number of snoops hitting in the snoop filter with a single holder of the requested data.
system.membus.snoop_filter.tot_requests        576692                       # Total number of requests made to the snoop filter.
system.membus.snoop_filter.tot_snoops               0                       # Total number of snoops made to the snoop filter.
system.tol2bus.snoop_filter.hit_multi_requests           13                       # Number of requests hitting in the snoop filter with multiple (>1) holders of the requested data.
system.tol2bus.snoop_filter.hit_multi_snoops            0                       # Number of snoops hitting in the snoop filter with multiple (>1) holders of the requested data.
system.tol2bus.snoop_filter.hit_single_requests       315899                       # Number of requests hitting in the snoop filter with a single holder of the requested data.
system.tol2bus.snoop_filter.hit_single_snoops           65                       # Number of snoops hitting in the snoop filter with a single holder of the requested data.
system.tol2bus.snoop_filter.tot_requests       632889                       # Total number of requests made to the snoop filter.
system.tol2bus.snoop_filter.tot_snoops             65                       # Total number of snoops made to the snoop filter.
system.membus.trans_dist::ReadResp                974                       # Transaction distribution
system.membus.trans_dist::WritebackDirty       271049                       # Transaction distribution
system.membus.trans_dist::CleanEvict              880                       # Transaction distribution
system.membus.trans_dist::ReadExReq            303707                       # Transaction distribution
system.membus.trans_dist::ReadExResp           303706                       # Transaction distribution
system.membus.trans_dist::ReadSharedReq           974                       # Transaction distribution
system.membus.trans_dist::InvalidateReq            82                       # Transaction distribution
system.membus.pkt_count_system.l2.mem_side::system.mem_ctrls.port       881372                       # Packet count per connected master and slave (bytes)
system.membus.pkt_count::total                 881372                       # Packet count per connected master and slave (bytes)
system.membus.pkt_size_system.l2.mem_side::system.mem_ctrls.port     36846656                       # Cumulative packet size per connected master and slave (bytes)
system.membus.pkt_size::total                36846656                       # Cumulative packet size per connected master and slave (bytes)
system.membus.snoops                                0                       # Total snoops (count)
system.membus.snoopTraffic                          0                       # Total snoop traffic (bytes)
system.membus.snoop_fanout::samples            304763                       # Request fanout histogram
system.membus.snoop_fanout::mean                    0                       # Request fanout histogram
system.membus.snoop_fanout::stdev                   0                       # Request fanout histogram
system.membus.snoop_fanout::underflows              0      0.00%      0.00% # Request fanout histogram
system.membus.snoop_fanout::0                  304763    100.00%    100.00% # Request fanout histogram
system.membus.snoop_fanout::1                       0      0.00%    100.00% # Request fanout histogram
system.membus.snoop_fanout::overflows               0      0.00%    100.00% # Request fanout histogram
system.membus.snoop_fanout::min_value               0                       # Request fanout histogram
system.membus.snoop_fanout::max_value               0                       # Request fanout histogram
system.membus.snoop_fanout::total              304763                       # Request fanout histogram
system.membus.reqLayer0.occupancy          1738354000                       # Layer occupancy (ticks)
system.membus.reqLayer0.utilization              19.9                       # Layer utilization (%)
system.membus.respLayer1.occupancy         1590170500                       # Layer occupancy (ticks)
system.membus.respLayer1.utilization             18.2                       # Layer utilization (%)
system.membus.power_state.pwrStateResidencyTicks::UNDEFINED   8715688500                       # Cumulative time (in ticks) in various power states
system.tol2bus.trans_dist::ReadResp             13199                       # Transaction distribution
system.tol2bus.trans_dist::WritebackDirty       573883                       # Transaction distribution
system.tol2bus.trans_dist::WritebackClean        12868                       # Transaction distribution
system.tol2bus.trans_dist::CleanEvict            1143                       # Transaction distribution
system.tol2bus.trans_dist::ReadExReq           303709                       # Transaction distribution
system.tol2bus.trans_dist::ReadExResp          303707                       # Transaction distribution
system.tol2bus.trans_dist::ReadCleanReq         12932                       # Transaction distribution
system.tol2bus.trans_dist::ReadSharedReq          267                       # Transaction distribution
system.tol2bus.trans_dist::InvalidateReq           82                       # Transaction distribution
system.tol2bus.trans_dist::InvalidateResp           82                       # Transaction distribution
system.tol2bus.pkt_count_system.cpu.icache.mem_side::system.l2.cpu_side        38732                       # Packet count per connected master and slave (bytes)
system.tol2bus.pkt_count_system.cpu.dcache.mem_side::system.l2.cpu_side       911145                       # Packet count per connected master and slave (bytes)
system.tol2bus.pkt_count::total                949877                       # Packet count per connected master and slave (bytes)
system.tol2bus.pkt_size_system.cpu.icache.mem_side::system.l2.cpu_side      1651200                       # Cumulative packet size per connected master and slave (bytes)
system.tol2bus.pkt_size_system.cpu.dcache.mem_side::system.l2.cpu_side     38835648                       # Cumulative packet size per connected master and slave (bytes)
system.tol2bus.pkt_size::total               40486848                       # Cumulative packet size per connected master and slave (bytes)
system.tol2bus.snoops                          271995                       # Total snoops (count)
system.tol2bus.snoopTraffic                  17347200                       # Total snoop traffic (bytes)
system.tol2bus.snoop_fanout::samples           588985                       # Request fanout histogram
system.tol2bus.snoop_fanout::mean            0.000132                       # Request fanout histogram
system.tol2bus.snoop_fanout::stdev           0.011507                       # Request fanout histogram
system.tol2bus.snoop_fanout::underflows             0      0.00%      0.00% # Request fanout histogram
system.tol2bus.snoop_fanout::0                 588907     99.99%     99.99% # Request fanout histogram
system.tol2bus.snoop_fanout::1                     78      0.01%    100.00% # Request fanout histogram
system.tol2bus.snoop_fanout::2                      0      0.00%    100.00% # Request fanout histogram
system.tol2bus.snoop_fanout::overflows              0      0.00%    100.00% # Request fanout histogram
system.tol2bus.snoop_fanout::min_value              0                       # Request fanout histogram
system.tol2bus.snoop_fanout::max_value              1                       # Request fanout histogram
system.tol2bus.snoop_fanout::total             588985                       # Request fanout histogram
system.tol2bus.reqLayer0.occupancy          634138340                       # Layer occupancy (ticks)
system.tol2bus.reqLayer0.utilization              7.3                       # Layer utilization (%)
system.tol2bus.respLayer1.occupancy         456003497                       # Layer occupancy (ticks)
system.tol2bus.respLayer1.utilization             5.2                       # Layer utilization (%)
system.tol2bus.respLayer0.occupancy          19398000                       # Layer occupancy (ticks)
system.tol2bus.respLayer0.utilization             0.2                       # Layer utilization (%)
system.tol2bus.power_state.pwrStateResidencyTicks::UNDEFINED   8715688500                       # Cumulative time (in ticks) in various power states
system.voltage_domain.voltage                       1                       # Voltage in Volts
system.clk_domain.clock                          1000                       # Clock period in ticks
system.l2.demand_hits::.cpu.inst                 5691                       # number of demand (read+write) hits
system.l2.demand_hits::.cpu.data                  114                       # number of demand (read+write) hits
system.l2.demand_hits::.cpu.icache.prefetcher         6421                       # number of demand (read+write) hits
system.l2.demand_hits::total                    12226                       # number of demand (read+write) hits
system.l2.overall_hits::.cpu.inst                5691                       # number of overall hits
system.l2.overall_hits::.cpu.data                 114                       # number of overall hits
system.l2.overall_hits::.cpu.icache.prefetcher         6421                       # number of overall hits
system.l2.overall_hits::total                   12226                       # number of overall hits
system.l2.demand_misses::.cpu.inst                820                       # number of demand (read+write) misses
system.l2.demand_misses::.cpu.data             303862                       # number of demand (read+write) misses
system.l2.demand_misses::total                 304682                       # number of demand (read+write) misses
system.l2.overall_misses::.cpu.inst               820                       # number of overall misses
system.l2.overall_misses::.cpu.data            303862                       # number of overall misses
system.l2.overall_misses::total                304682                       # number of overall misses
system.l2.demand_miss_latency::.cpu.inst     65136000                       # number of demand (read+write) miss cycles
system.l2.demand_miss_latency::.cpu.data  31827761500                       # number of demand (read+write) miss cycles
system.l2.demand_miss_latency::total      31892897500                       # number of demand (read+write) miss cycles
system.l2.overall_miss_latency::.cpu.inst     65136000                       # number of overall miss cycles
system.l2.overall_miss_latency::.cpu.data  31827761500                       # number of overall miss cycles
system.l2.overall_miss_latency::total     31892897500                       # number of overall miss cycles
system.l2.demand_accesses::.cpu.inst             6511                       # number of demand (read+write) accesses
system.l2.demand_accesses::.cpu.data           303976                       # number of demand (read+write) accesses
system.l2.demand_accesses::.cpu.icache.prefetcher         6421                       # number of demand (read+write) accesses
system.l2.demand_accesses::total               316908                       # number of demand (read+write) accesses
system.l2.overall_accesses::.cpu.inst            6511                       # number of overall (read+write) accesses
system.l2.overall_accesses::.cpu.data          303976                       # number of overall (read+write) accesses
system.l2.overall_accesses::.cpu.icache.prefetcher         6421                       # number of overall (read+write) accesses
system.l2.overall_accesses::total              316908                       # number of overall (read+write) accesses
system.l2.demand_miss_rate::.cpu.inst        0.125941                       # miss rate for demand accesses
system.l2.demand_miss_rate::.cpu.data        0.999625                       # miss rate for demand accesses
system.l2.demand_miss_rate::total            0.961421                       # miss rate for demand accesses
system.l2.overall_miss_rate::.cpu.inst       0.125941                       # miss rate for overall accesses
system.l2.overall_miss_rate::.cpu.data       0.999625                       # miss rate for overall accesses
system.l2.overall_miss_rate::total           0.961421                       # miss rate for overall accesses
system.l2.demand_avg_miss_latency::.cpu.inst 79434.146341                       # average overall miss latency
system.l2.demand_avg_miss_latency::.cpu.data 104744.132205                       # average overall miss latency
system.l2.demand_avg_miss_latency::total 104676.014664                       # average overall miss latency
system.l2.overall_avg_miss_latency::.cpu.inst 79434.146341                       # average overall miss latency
system.l2.overall_avg_miss_latency::.cpu.data 104744.132205                       # average overall miss latency
system.l2.overall_avg_miss_latency::total 104676.014664                       # average overall miss latency
system.l2.blocked_cycles::no_mshrs                  0                       # number of cycles access was blocked
system.l2.blocked_cycles::no_targets                0                       # number of cycles access was blocked
system.l2.blocked::no_mshrs                         0                       # number of cycles access was blocked
system.l2.blocked::no_targets                       0                       # number of cycles access was blocked
system.l2.avg_blocked_cycles::no_mshrs            nan                       # average number of cycles each access was blocked
system.l2.avg_blocked_cycles::no_targets          nan                       # average number of cycles each access was blocked
system.l2.writebacks::.writebacks              271050                       # number of writebacks
system.l2.writebacks::total                    271050                       # number of writebacks
system.l2.demand_mshr_misses::.cpu.inst           820                       # number of demand (read+write) MSHR misses
system.l2.demand_mshr_misses::.cpu.data        303862                       # number of demand (read+write) MSHR misses
system.l2.demand_mshr_misses::total            304682                       # number of demand (read+write) MSHR misses
system.l2.overall_mshr_misses::.cpu.inst          820                       # number of overall MSHR misses
system.l2.overall_mshr_misses::.cpu.data       303862                       # number of overall MSHR misses
system.l2.overall_mshr_misses::total           304682                       # number of overall MSHR misses
system.l2.demand_mshr_miss_latency::.cpu.inst     56936000                       # number of demand (read+write) MSHR miss cycles
system.l2.demand_mshr_miss_latency::.cpu.data  28789161001                       # number of demand (read+write) MSHR miss cycles
system.l2.demand_mshr_miss_latency::total  28846097001                       # number of demand (read+write) MSHR miss cycles
system.l2.overall_mshr_miss_latency::.cpu.inst     56936000                       # number of overall MSHR miss cycles
system.l2.overall_mshr_miss_latency::.cpu.data  28789161001                       # number of overall MSHR miss cycles
system.l2.overall_mshr_miss_latency::total  28846097001                       # number of overall MSHR miss cycles
system.l2.demand_mshr_miss_rate::.cpu.inst     0.125941                       # mshr miss rate for demand accesses
system.l2.demand_mshr_miss_rate::.cpu.data     0.999625                       # mshr miss rate for demand accesses
system.l2.demand_mshr_miss_rate::total       0.961421                       # mshr miss rate for demand accesses
system.l2.overall_mshr_miss_rate::.cpu.inst     0.125941                       # mshr miss rate for overall accesses
system.l2.overall_mshr_miss_rate::.cpu.data     0.999625                       # mshr miss rate for overall accesses
system.l2.overall_mshr_miss_rate::total      0.961421                       # mshr miss rate for overall accesses
system.l2.demand_avg_mshr_miss_latency::.cpu.inst 69434.146341                       # average overall mshr miss latency
system.l2.demand_avg_mshr_miss_latency::.cpu.data 94744.196382                       # average overall mshr miss latency
system.l2.demand_avg_mshr_miss_latency::total 94676.078669                       # average overall mshr miss latency
system.l2.overall_avg_mshr_miss_latency::.cpu.inst 69434.146341                       # average overall mshr miss latency
system.l2.overall_avg_mshr_miss_latency::.cpu.data 94744.196382                       # average overall mshr miss latency
system.l2.overall_avg_mshr_miss_latency::total 94676.078669                       # average overall mshr miss latency
system.l2.replacements                         271995                       # number of replacements
system.l2.WritebackDirty_hits::.writebacks       302833                       # number of WritebackDirty hits
system.l2.WritebackDirty_hits::total           302833                       # number of WritebackDirty hits
system.l2.WritebackDirty_accesses::.writebacks       302833                       # number of WritebackDirty accesses(hits+misses)
system.l2.WritebackDirty_accesses::total       302833                       # number of WritebackDirty accesses(hits+misses)
system.l2.WritebackClean_hits::.writebacks        12855                       # number of WritebackClean hits
system.l2.WritebackClean_hits::total            12855                       # number of WritebackClean hits
system.l2.WritebackClean_accesses::.writebacks        12855                       # number of WritebackClean accesses(hits+misses)
system.l2.WritebackClean_accesses::total        12855                       # number of WritebackClean accesses(hits+misses)
system.l2.ReadExReq_hits::.cpu.data                 1                       # number of ReadExReq hits
system.l2.ReadExReq_hits::total                     1                       # number of ReadExReq hits
system.l2.ReadExReq_misses::.cpu.data          303708                       # number of ReadExReq misses
system.l2.ReadExReq_misses::total              303708                       # number of ReadExReq misses
system.l2.ReadExReq_miss_latency::.cpu.data  31814507500                       # number of ReadExReq miss cycles
system.l2.ReadExReq_miss_latency::total   31814507500                       # number of ReadExReq miss cycles
system.l2.ReadExReq_accesses::.cpu.data        303709                       # number of ReadExReq accesses(hits+misses)
system.l2.ReadExReq_accesses::total            303709                       # number of ReadExReq accesses(hits+misses)
system.l2.ReadExReq_miss_rate::.cpu.data     0.999997                       # miss rate for ReadExReq accesses
system.l2.ReadExReq_miss_rate::total         0.999997                       # miss rate for ReadExReq accesses
system.l2.ReadExReq_avg_miss_latency::.cpu.data 104753.603790                       # average ReadExReq miss latency
system.l2.ReadExReq_avg_miss_latency::total 104753.603790                       # average ReadExReq miss latency
system.l2.ReadExReq_mshr_misses::.cpu.data       303708                       # number of ReadExReq MSHR misses
system.l2.ReadExReq_mshr_misses::total         303708                       # number of ReadExReq MSHR misses
system.l2.ReadExReq_mshr_miss_latency::.cpu.data  28777447001                       # number of ReadExReq MSHR miss cycles
system.l2.ReadExReq_mshr_miss_latency::total  28777447001                       # number of ReadExReq MSHR miss cycles
system.l2.ReadExReq_mshr_miss_rate::.cpu.data     0.999997                       # mshr miss rate for ReadExReq accesses
system.l2.ReadExReq_mshr_miss_rate::total     0.999997                       # mshr miss rate for ReadExReq accesses
system.l2.ReadExReq_avg_mshr_miss_latency::.cpu.data 94753.668000                       # average ReadExReq mshr miss latency
system.l2.ReadExReq_avg_mshr_miss_latency::total 94753.668000                       # average ReadExReq mshr miss latency
system.l2.ReadCleanReq_hits::.cpu.inst           5691                       # number of ReadCleanReq hits
system.l2.ReadCleanReq_hits::.cpu.icache.prefetcher         6421                       # number of ReadCleanReq hits
system.l2.ReadCleanReq_hits::total              12112                       # number of ReadCleanReq hits
system.l2.ReadCleanReq_misses::.cpu.inst          820                       # number of ReadCleanReq misses
system.l2.ReadCleanReq_misses::total              820                       # number of ReadCleanReq misses
[...]
system.cpu.dcache.overall_miss_latency::total 209193205505                       # number of overall miss cycles
system.cpu.dcache.demand_accesses::.cpu.data      2491612                       # number of demand (read+write) accesses
system.cpu.dcache.demand_accesses::total      2491612                       # number of demand (read+write) accesses
system.cpu.dcache.overall_accesses::.cpu.data      2491750                       # number of overall (read+write) accesses
system.cpu.dcache.overall_accesses::total      2491750                       # number of overall (read+write) accesses
system.cpu.dcache.demand_miss_rate::.cpu.data     0.975115                       # miss rate for demand accesses
system.cpu.dcache.demand_miss_rate::total     0.975115                       # miss rate for demand accesses
system.cpu.dcache.overall_miss_rate::.cpu.data     0.975064                       # miss rate for overall accesses
system.cpu.dcache.overall_miss_rate::total     0.975064                       # miss rate for overall accesses
system.cpu.dcache.demand_avg_miss_latency::.cpu.data 86101.593098                       # average overall miss latency
system.cpu.dcache.demand_avg_miss_latency::total 86101.593098                       # average overall miss latency
system.cpu.dcache.overall_avg_miss_latency::.cpu.data 86101.345029                       # average overall miss latency
system.cpu.dcache.overall_avg_miss_latency::total 86101.345029                       # average overall miss latency
system.cpu.dcache.blocked_cycles::no_mshrs     14529925                       # number of cycles access was blocked
system.cpu.dcache.blocked_cycles::no_targets            0                       # number of cycles access was blocked
system.cpu.dcache.blocked::no_mshrs            265599                       # number of cycles access was blocked
system.cpu.dcache.blocked::no_targets               0                       # number of cycles access was blocked
system.cpu.dcache.avg_blocked_cycles::no_mshrs    54.706249                       # average number of cycles each access was blocked
system.cpu.dcache.avg_blocked_cycles::no_targets          nan                       # average number of cycles each access was blocked
system.cpu.dcache.writebacks::.writebacks       302834                       # number of writebacks
system.cpu.dcache.writebacks::total            302834                       # number of writebacks
system.cpu.dcache.demand_mshr_hits::.cpu.data      2125558                       # number of demand (read+write) MSHR hits
system.cpu.dcache.demand_mshr_hits::total      2125558                       # number of demand (read+write) MSHR hits
system.cpu.dcache.overall_mshr_hits::.cpu.data      2125558                       # number of overall MSHR hits
system.cpu.dcache.overall_mshr_hits::total      2125558                       # number of overall MSHR hits
system.cpu.dcache.demand_mshr_misses::.cpu.data       304051                       # number of demand (read+write) MSHR misses
system.cpu.dcache.demand_mshr_misses::total       304051                       # number of demand (read+write) MSHR misses
system.cpu.dcache.overall_mshr_misses::.cpu.data       304058                       # number of overall MSHR misses
system.cpu.dcache.overall_mshr_misses::total       304058                       # number of overall MSHR misses
system.cpu.dcache.demand_mshr_miss_latency::.cpu.data  32376886467                       # number of demand (read+write) MSHR miss cycles
system.cpu.dcache.demand_mshr_miss_latency::total  32376886467                       # number of demand (read+write) MSHR miss cycles
system.cpu.dcache.overall_mshr_miss_latency::.cpu.data  32377413967                       # number of overall MSHR miss cycles
system.cpu.dcache.overall_mshr_miss_latency::total  32377413967                       # number of overall MSHR miss cycles
system.cpu.dcache.demand_mshr_miss_rate::.cpu.data     0.122030                       # mshr miss rate for demand accesses
system.cpu.dcache.demand_mshr_miss_rate::total     0.122030                       # mshr miss rate for demand accesses
system.cpu.dcache.overall_mshr_miss_rate::.cpu.data     0.122026                       # mshr miss rate for overall accesses
system.cpu.dcache.overall_mshr_miss_rate::total     0.122026                       # mshr miss rate for overall accesses
system.cpu.dcache.demand_avg_mshr_miss_latency::.cpu.data 106485.051741                       # average overall mshr miss latency
system.cpu.dcache.demand_avg_mshr_miss_latency::total 106485.051741                       # average overall mshr miss latency
system.cpu.dcache.overall_avg_mshr_miss_latency::.cpu.data 106484.335117                       # average overall mshr miss latency
system.cpu.dcache.overall_avg_mshr_miss_latency::total 106484.335117                       # average overall mshr miss latency
system.cpu.dcache.replacements                 303032                       # number of replacements
system.cpu.dcache.ReadReq_hits::.cpu.data        35697                       # number of ReadReq hits
system.cpu.dcache.ReadReq_hits::total           35697                       # number of ReadReq hits
system.cpu.dcache.ReadReq_misses::.cpu.data          561                       # number of ReadReq misses
system.cpu.dcache.ReadReq_misses::total           561                       # number of ReadReq misses
system.cpu.dcache.ReadReq_miss_latency::.cpu.data     30365000                       # number of ReadReq miss cycles
system.cpu.dcache.ReadReq_miss_latency::total     30365000                       # number of ReadReq miss cycles
system.cpu.dcache.ReadReq_accesses::.cpu.data        36258                       # number of ReadReq accesses(hits+misses)
system.cpu.dcache.ReadReq_accesses::total        36258                       # number of ReadReq accesses(hits+misses)
system.cpu.dcache.ReadReq_miss_rate::.cpu.data     0.015472                       # miss rate for ReadReq accesses
system.cpu.dcache.ReadReq_miss_rate::total     0.015472                       # miss rate for ReadReq accesses
system.cpu.dcache.ReadReq_avg_miss_latency::.cpu.data 54126.559715                       # average ReadReq miss latency
system.cpu.dcache.ReadReq_avg_miss_latency::total 54126.559715                       # average ReadReq miss latency
system.cpu.dcache.ReadReq_mshr_hits::.cpu.data          302                       # number of ReadReq MSHR hits
system.cpu.dcache.ReadReq_mshr_hits::total          302                       # number of ReadReq MSHR hits
system.cpu.dcache.ReadReq_mshr_misses::.cpu.data          259                       # number of ReadReq MSHR misses
system.cpu.dcache.ReadReq_mshr_misses::total          259                       # number of ReadReq MSHR misses
system.cpu.dcache.ReadReq_mshr_miss_latency::.cpu.data     14239000                       # number of ReadReq MSHR miss cycles
system.cpu.dcache.ReadReq_mshr_miss_latency::total     14239000                       # number of ReadReq MSHR miss cycles
system.cpu.dcache.ReadReq_mshr_miss_rate::.cpu.data     0.007143                       # mshr miss rate for ReadReq accesses
system.cpu.dcache.ReadReq_mshr_miss_rate::total     0.007143                       # mshr miss rate for ReadReq accesses
system.cpu.dcache.ReadReq_avg_mshr_miss_latency::.cpu.data 54976.833977                       # average ReadReq mshr miss latency
system.cpu.dcache.ReadReq_avg_mshr_miss_latency::total 54976.833977                       # average ReadReq mshr miss latency
system.cpu.dcache.WriteReq_hits::.cpu.data        26262                       # number of WriteReq hits
system.cpu.dcache.WriteReq_hits::total          26262                       # number of WriteReq hits
system.cpu.dcache.WriteReq_misses::.cpu.data      2428990                       # number of WriteReq misses
system.cpu.dcache.WriteReq_misses::total      2428990                       # number of WriteReq misses
system.cpu.dcache.WriteReq_miss_latency::.cpu.data 209161004533                       # number of WriteReq miss cycles
system.cpu.dcache.WriteReq_miss_latency::total 209161004533                       # number of WriteReq miss cycles
system.cpu.dcache.WriteReq_accesses::.cpu.data      2455252                       # number of WriteReq accesses(hits+misses)
system.cpu.dcache.WriteReq_accesses::total      2455252                       # number of WriteReq accesses(hits+misses)
system.cpu.dcache.WriteReq_miss_rate::.cpu.data     0.989304                       # miss rate for WriteReq accesses
system.cpu.dcache.WriteReq_miss_rate::total     0.989304                       # miss rate for WriteReq accesses
system.cpu.dcache.WriteReq_avg_miss_latency::.cpu.data 86110.278154                       # average WriteReq miss latency
system.cpu.dcache.WriteReq_avg_miss_latency::total 86110.278154                       # average WriteReq miss latency
system.cpu.dcache.WriteReq_mshr_hits::.cpu.data      2125256                       # number of WriteReq MSHR hits
system.cpu.dcache.WriteReq_mshr_hits::total      2125256                       # number of WriteReq MSHR hits
system.cpu.dcache.WriteReq_mshr_misses::.cpu.data       303734                       # number of WriteReq MSHR misses
system.cpu.dcache.WriteReq_mshr_misses::total       303734                       # number of WriteReq MSHR misses
system.cpu.dcache.WriteReq_mshr_miss_latency::.cpu.data  32360869495                       # number of WriteReq MSHR miss cycles
system.cpu.dcache.WriteReq_mshr_miss_latency::total  32360869495                       # number of WriteReq MSHR miss cycles
system.cpu.dcache.WriteReq_mshr_miss_rate::.cpu.data     0.123708                       # mshr miss rate for WriteReq accesses
system.cpu.dcache.WriteReq_mshr_miss_rate::total     0.123708                       # mshr miss rate for WriteReq accesses
system.cpu.dcache.WriteReq_avg_mshr_miss_latency::.cpu.data 106543.454124                       # average WriteReq mshr miss latency
system.cpu.dcache.WriteReq_avg_mshr_miss_latency::total 106543.454124                       # average WriteReq mshr miss latency
system.cpu.dcache.SoftPFReq_hits::.cpu.data          131                       # number of SoftPFReq hits
system.cpu.dcache.SoftPFReq_hits::total           131                       # number of SoftPFReq hits
system.cpu.dcache.SoftPFReq_misses::.cpu.data            7                       # number of SoftPFReq misses
system.cpu.dcache.SoftPFReq_misses::total            7                       # number of SoftPFReq misses
system.cpu.dcache.SoftPFReq_accesses::.cpu.data          138                       # number of SoftPFReq accesses(hits+misses)
system.cpu.dcache.SoftPFReq_accesses::total          138                       # number of SoftPFReq accesses(hits+misses)
system.cpu.dcache.SoftPFReq_miss_rate::.cpu.data     0.050725                       # miss rate for SoftPFReq accesses
system.cpu.dcache.SoftPFReq_miss_rate::total     0.050725                       # miss rate for SoftPFReq accesses
system.cpu.dcache.SoftPFReq_mshr_misses::.cpu.data            7                       # number of SoftPFReq MSHR misses
system.cpu.dcache.SoftPFReq_mshr_misses::total            7                       # number of SoftPFReq MSHR misses
system.cpu.dcache.SoftPFReq_mshr_miss_latency::.cpu.data       527500                       # number of SoftPFReq MSHR miss cycles
system.cpu.dcache.SoftPFReq_mshr_miss_latency::total       527500                       # number of SoftPFReq MSHR miss cycles
system.cpu.dcache.SoftPFReq_mshr_miss_rate::.cpu.data     0.050725                       # mshr miss rate for SoftPFReq accesses
system.cpu.dcache.SoftPFReq_mshr_miss_rate::total     0.050725                       # mshr miss rate for SoftPFReq accesses
system.cpu.dcache.SoftPFReq_avg_mshr_miss_latency::.cpu.data 75357.142857                       # average SoftPFReq mshr miss latency
system.cpu.dcache.SoftPFReq_avg_mshr_miss_latency::total 75357.142857                       # average SoftPFReq mshr miss latency
system.cpu.dcache.WriteLineReq_hits::.cpu.data           44                       # number of WriteLineReq hits
system.cpu.dcache.WriteLineReq_hits::total           44                       # number of WriteLineReq hits
system.cpu.dcache.WriteLineReq_misses::.cpu.data           58                       # number of WriteLineReq misses
system.cpu.dcache.WriteLineReq_misses::total           58                       # number of WriteLineReq misses
system.cpu.dcache.WriteLineReq_miss_latency::.cpu.data      1835972                       # number of WriteLineReq miss cycles
system.cpu.dcache.WriteLineReq_miss_latency::total      1835972                       # number of WriteLineReq miss cycles
system.cpu.dcache.WriteLineReq_accesses::.cpu.data          102                       # number of WriteLineReq accesses(hits+misses)
system.cpu.dcache.WriteLineReq_accesses::total          102                       # number of WriteLineReq accesses(hits+misses)
system.cpu.dcache.WriteLineReq_miss_rate::.cpu.data     0.568627                       # miss rate for WriteLineReq accesses
system.cpu.dcache.WriteLineReq_miss_rate::total     0.568627                       # miss rate for WriteLineReq accesses
system.cpu.dcache.WriteLineReq_avg_miss_latency::.cpu.data 31654.689655                       # average WriteLineReq miss latency
system.cpu.dcache.WriteLineReq_avg_miss_latency::total 31654.689655                       # average WriteLineReq miss latency
system.cpu.dcache.WriteLineReq_mshr_misses::.cpu.data           58                       # number of WriteLineReq MSHR misses
system.cpu.dcache.WriteLineReq_mshr_misses::total           58                       # number of WriteLineReq MSHR misses
system.cpu.dcache.WriteLineReq_mshr_miss_latency::.cpu.data      1777972                       # number of WriteLineReq MSHR miss cycles
system.cpu.dcache.WriteLineReq_mshr_miss_latency::total      1777972                       # number of WriteLineReq MSHR miss cycles
system.cpu.dcache.WriteLineReq_mshr_miss_rate::.cpu.data     0.568627                       # mshr miss rate for WriteLineReq accesses
system.cpu.dcache.WriteLineReq_mshr_miss_rate::total     0.568627                       # mshr miss rate for WriteLineReq accesses
system.cpu.dcache.WriteLineReq_avg_mshr_miss_latency::.cpu.data 30654.689655                       # average WriteLineReq mshr miss latency
system.cpu.dcache.WriteLineReq_avg_mshr_miss_latency::total 30654.689655                       # average WriteLineReq mshr miss latency
system.cpu.dcache.LoadLockedReq_hits::.cpu.data          156                       # number of LoadLockedReq hits
system.cpu.dcache.LoadLockedReq_hits::total          156                       # number of LoadLockedReq hits
system.cpu.dcache.LoadLockedReq_misses::.cpu.data            2                       # number of LoadLockedReq misses
system.cpu.dcache.LoadLockedReq_misses::total            2                       # number of LoadLockedReq misses
system.cpu.dcache.LoadLockedReq_miss_latency::.cpu.data       187000                       # number of LoadLockedReq miss cycles
system.cpu.dcache.LoadLockedReq_miss_latency::total       187000                       # number of LoadLockedReq miss cycles
system.cpu.dcache.LoadLockedReq_accesses::.cpu.data          158                       # number of LoadLockedReq accesses(hits+misses)
system.cpu.dcache.LoadLockedReq_accesses::total          158                       # number of LoadLockedReq accesses(hits+misses)
system.cpu.dcache.LoadLockedReq_miss_rate::.cpu.data     0.012658                       # miss rate for LoadLockedReq accesses
system.cpu.dcache.LoadLockedReq_miss_rate::total     0.012658                       # miss rate for LoadLockedReq accesses
system.cpu.dcache.LoadLockedReq_avg_miss_latency::.cpu.data        93500                       # average LoadLockedReq miss latency
system.cpu.dcache.LoadLockedReq_avg_miss_latency::total        93500                       # average LoadLockedReq miss latency
system.cpu.dcache.LoadLockedReq_mshr_hits::.cpu.data            1                       # number of LoadLockedReq MSHR hits
system.cpu.dcache.LoadLockedReq_mshr_hits::total            1                       # number of LoadLockedReq MSHR hits
system.cpu.dcache.LoadLockedReq_mshr_misses::.cpu.data            1                       # number of LoadLockedReq MSHR misses
system.cpu.dcache.LoadLockedReq_mshr_misses::total            1                       # number of LoadLockedReq MSHR misses
system.cpu.dcache.LoadLockedReq_mshr_miss_latency::.cpu.data        85000                       # number of LoadLockedReq MSHR miss cycles
system.cpu.dcache.LoadLockedReq_mshr_miss_latency::total        85000                       # number of LoadLockedReq MSHR miss cycles
system.cpu.dcache.LoadLockedReq_mshr_miss_rate::.cpu.data     0.006329                       # mshr miss rate for LoadLockedReq accesses
system.cpu.dcache.LoadLockedReq_mshr_miss_rate::total     0.006329                       # mshr miss rate for LoadLockedReq accesses
system.cpu.dcache.LoadLockedReq_avg_mshr_miss_latency::.cpu.data        85000                       # average LoadLockedReq mshr miss latency
system.cpu.dcache.LoadLockedReq_avg_mshr_miss_latency::total        85000                       # average LoadLockedReq mshr miss latency
system.cpu.dcache.StoreCondReq_hits::.cpu.data          138                       # number of StoreCondReq hits
system.cpu.dcache.StoreCondReq_hits::total          138                       # number of StoreCondReq hits
system.cpu.dcache.StoreCondReq_accesses::.cpu.data          138                       # number of StoreCondReq accesses(hits+misses)
system.cpu.dcache.StoreCondReq_accesses::total          138                       # number of StoreCondReq accesses(hits+misses)
system.cpu.dcache.power_state.pwrStateResidencyTicks::UNDEFINED   8715688500                       # Cumulative time (in ticks) in various power states
system.cpu.dcache.tags.tagsinuse          1010.230195                       # Cycle average of tags in use
system.cpu.dcache.tags.total_refs              366484                       # Total number of references to valid blocks.
system.cpu.dcache.tags.sampled_refs            304056                       # Sample count of references to valid blocks.
system.cpu.dcache.tags.avg_refs              1.205317                       # Average number of references to valid blocks.
system.cpu.dcache.tags.warmup_cycle            176500                       # Cycle when the warmup percentage was hit.
system.cpu.dcache.tags.occ_blocks::.cpu.data  1010.230195                       # Average occupied blocks per requestor
system.cpu.dcache.tags.occ_percent::.cpu.data     0.986553                       # Average percentage of cache occupancy
system.cpu.dcache.tags.occ_percent::total     0.986553                       # Average percentage of cache occupancy
system.cpu.dcache.tags.occ_task_id_blocks::1024         1024                       # Occupied blocks per task id
system.cpu.dcache.tags.age_task_id_blocks_1024::0          347                       # Occupied blocks per task id
system.cpu.dcache.tags.age_task_id_blocks_1024::1          677                       # Occupied blocks per task id
system.cpu.dcache.tags.occ_task_id_percent::1024            1                       # Percentage of cache occupancy per task id
system.cpu.dcache.tags.tag_accesses           5288148                       # Number of tag accesses
system.cpu.dcache.tags.data_accesses          5288148                       # Number of data accesses
system.cpu.dcache.tags.power_state.pwrStateResidencyTicks::UNDEFINED   8715688500                       # Cumulative time (in ticks) in various power states
system.cpu.power_state.pwrStateResidencyTicks::ON   8715688500                       # Cumulative time (in ticks) in various power states

---------- End Simulation Statistics   ----------
