
---------- Begin Simulation Statistics ----------
final_tick                                 8555217000                       # Number of ticks from beginning of simulation (restored from checkpoints and never reset)
host_inst_rate                                  22701                       # Simulator instruction rate (inst/s)
host_mem_usage                                 875588                       # Number of bytes of host memory used
host_op_rate                                    25740                       # Simulator op (including micro ops) rate (op/s)
host_seconds                                   440.51                       # Real time elapsed on the host
host_tick_rate                               19421307                       # Simulator tick rate (ticks/s)
sim_freq                                 1000000000000                       # Frequency of simulated ticks
sim_insts                                    10000000                       # Number of instructions simulated
sim_ops                                      11338771                       # Number of ops (including micro ops) simulated
sim_seconds                                  0.008555                       # Number of seconds simulated
sim_ticks                                  8555217000                       # Number of ticks simulated
system.cpu.branchPred.BTBCorrect                    0                       # Number of correct BTB predictions (this stat may not work properly.
system.cpu.branchPred.BTBHitPct             99.895885                       # BTB Hit Percentage
system.cpu.branchPred.BTBHits                  915339                       # Number of BTB hits
system.cpu.branchPred.BTBLookups               916293                       # Number of BTB lookups
system.cpu.branchPred.RASInCorrect                  2                       # Number of incorrect RAS predictions.
system.cpu.branchPred.condIncorrect               948                       # Number of conditional branches incorrect
system.cpu.branchPred.condPredicted           1791841                       # Number of conditional branches predicted
system.cpu.branchPred.indirectHits              30252                       # Number of indirect target hits.
system.cpu.branchPred.indirectLookups           30544                       # Number of indirect predictor lookups.
system.cpu.branchPred.indirectMisses              292                       # Number of indirect misses.
system.cpu.branchPred.lookups                 2230079                       # Number of BP lookups
system.cpu.branchPred.usedRAS                  109351                       # Number of times the RAS was used to get a target.
system.cpu.branchPredindirectMispredicted           77                       # Number of mispredicted indirect branches.
system.cpu.cc_regfile_reads                   4683603                       # number of cc regfile reads
system.cpu.cc_regfile_writes                  4440429                       # number of cc regfile writes
system.cpu.commit.amos                              0                       # Number of atomic instructions committed
system.cpu.commit.branchMispredicts               691                       # The number of times a branch was mispredicted
system.cpu.commit.branches                    2221351                       # Number of branches committed
system.cpu.commit.bw_lim_events                363769                       # number cycles where commit BW limit reached
system.cpu.commit.commitNonSpecStalls           12142                       # The number of times commit has been forced to stall to communicate backwards
system.cpu.commit.commitSquashedInsts           39015                       # The number of squashed insts skipped by commit
system.cpu.commit.committedInsts             10006066                       # Number of instructions committed
system.cpu.commit.committedOps               11344837                       # Number of ops (including micro ops) committed
system.cpu.commit.committed_per_cycle::samples     15565058                       # Number of insts commited each cycle
system.cpu.commit.committed_per_cycle::mean     0.728866                       # Number of insts commited each cycle
system.cpu.commit.committed_per_cycle::stdev     1.683714                       # Number of insts commited each cycle
system.cpu.commit.committed_per_cycle::underflows            0      0.00%      0.00% # Number of insts commited each cycle
system.cpu.commit.committed_per_cycle::0     11459636     73.62%     73.62% # Number of insts commited each cycle
system.cpu.commit.committed_per_cycle::1      1779873     11.44%     85.06% # Number of insts commited each cycle
system.cpu.commit.committed_per_cycle::2       793391      5.10%     90.16% # Number of insts commited each cycle
system.cpu.commit.committed_per_cycle::3       440483      2.83%     92.99% # Number of insts commited each cycle
system.cpu.commit.committed_per_cycle::4       291440      1.87%     94.86% # Number of insts commited each cycle
system.cpu.commit.committed_per_cycle::5       156482      1.01%     95.86% # Number of insts commited each cycle
system.cpu.commit.committed_per_cycle::6       161477      1.04%     96.90% # Number of insts commited each cycle
system.cpu.commit.committed_per_cycle::7       118507      0.76%     97.66% # Number of insts commited each cycle
system.cpu.commit.committed_per_cycle::8       363769      2.34%    100.00% # Number of insts commited each cycle
system.cpu.commit.committed_per_cycle::overflows            0      0.00%    100.00% # Number of insts commited each cycle
system.cpu.commit.committed_per_cycle::min_value            0                       # Number of insts commited each cycle
system.cpu.commit.committed_per_cycle::max_value            8                       # Number of insts commited each cycle
system.cpu.commit.committed_per_cycle::total     15565058                       # Number of insts commited each cycle
system.cpu.commit.fp_insts                          0                       # Number of committed floating point instructions.
system.cpu.commit.function_calls               109017                       # Number of function calls committed.
system.cpu.commit.int_insts                   9861989                       # Number of committed integer instructions.
system.cpu.commit.loads                       1710889                       # Number of loads committed
system.cpu.commit.membars                       12120                       # Number of memory barriers committed
system.cpu.commit.op_class_0::No_OpClass         8314      0.07%      0.07% # Class of committed instruction
system.cpu.commit.op_class_0::IntAlu          7690808     67.79%     67.86% # Class of committed instruction
system.cpu.commit.op_class_0::IntMult           60460      0.53%     68.40% # Class of committed instruction
system.cpu.commit.op_class_0::IntDiv                3      0.00%     68.40% # Class of committed instruction
system.cpu.commit.op_class_0::FloatAdd              0      0.00%     68.40% # Class of committed instruction
system.cpu.commit.op_class_0::FloatCmp              0      0.00%     68.40% # Class of committed instruction
system.cpu.commit.op_class_0::FloatCvt              0      0.00%     68.40% # Class of committed instruction
system.cpu.commit.op_class_0::FloatMult             0      0.00%     68.40% # Class of committed instruction
system.cpu.commit.op_class_0::FloatMultAcc            0      0.00%     68.40% # Class of committed instruction
system.cpu.commit.op_class_0::FloatDiv              0      0.00%     68.40% # Class of committed instruction
system.cpu.commit.op_class_0::FloatMisc             0      0.00%     68.40% # Class of committed instruction
system.cpu.commit.op_class_0::FloatSqrt             0      0.00%     68.40% # Class of committed instruction
system.cpu.commit.op_class_0::SimdAdd           18890      0.17%     68.56% # Class of committed instruction
system.cpu.commit.op_class_0::SimdAddAcc            0      0.00%     68.56% # Class of committed instruction
system.cpu.commit.op_class_0::SimdAlu           18886      0.17%     68.73% # Class of committed instruction
system.cpu.commit.op_class_0::SimdCmp           16638      0.15%     68.88% # Class of committed instruction
system.cpu.commit.op_class_0::SimdCvt               0      0.00%     68.88% # Class of committed instruction
system.cpu.commit.op_class_0::SimdMisc          22677      0.20%     69.08% # Class of committed instruction
system.cpu.commit.op_class_0::SimdMult              0      0.00%     69.08% # Class of committed instruction
system.cpu.commit.op_class_0::SimdMultAcc            0      0.00%     69.08% # Class of committed instruction
system.cpu.commit.op_class_0::SimdShift             0      0.00%     69.08% # Class of committed instruction
system.cpu.commit.op_class_0::SimdShiftAcc            0      0.00%     69.08% # Class of committed instruction
system.cpu.commit.op_class_0::SimdDiv               0      0.00%     69.08% # Class of committed instruction
system.cpu.commit.op_class_0::SimdSqrt              0      0.00%     69.08% # Class of committed instruction
system.cpu.commit.op_class_0::SimdFloatAdd            0      0.00%     69.08% # Class of committed instruction
system.cpu.commit.op_class_0::SimdFloatAlu            0      0.00%     69.08% # Class of committed instruction
system.cpu.commit.op_class_0::SimdFloatCmp            0      0.00%     69.08% # Class of committed instruction
system.cpu.commit.op_class_0::SimdFloatCvt            0      0.00%     69.08% # Class of committed instruction
system.cpu.commit.op_class_0::SimdFloatDiv            0      0.00%     69.08% # Class of committed instruction
system.cpu.commit.op_class_0::SimdFloatMisc            0      0.00%     69.08% # Class of committed instruction
system.cpu.commit.op_class_0::SimdFloatMult            0      0.00%     69.08% # Class of committed instruction
system.cpu.commit.op_class_0::SimdFloatMultAcc            0      0.00%     69.08% # Class of committed instruction
system.cpu.commit.op_class_0::SimdFloatSqrt            0      0.00%     69.08% # Class of committed instruction
system.cpu.commit.op_class_0::SimdReduceAdd            0      0.00%     69.08% # Class of committed instruction
system.cpu.commit.op_class_0::SimdReduceAlu            0      0.00%     69.08% # Class of committed instruction
system.cpu.commit.op_class_0::SimdReduceCmp            0      0.00%     69.08% # Class of committed instruction
system.cpu.commit.op_class_0::SimdFloatReduceAdd            0      0.00%     69.08% # Class of committed instruction
system.cpu.commit.op_class_0::SimdFloatReduceCmp            0      0.00%     69.08% # Class of committed instruction
system.cpu.commit.op_class_0::SimdAes               0      0.00%     69.08% # Class of committed instruction
system.cpu.commit.op_class_0::SimdAesMix            0      0.00%     69.08% # Class of committed instruction
system.cpu.commit.op_class_0::SimdSha1Hash            0      0.00%     69.08% # Class of committed instruction
system.cpu.commit.op_class_0::SimdSha1Hash2            0      0.00%     69.08% # Class of committed instruction
system.cpu.commit.op_class_0::SimdSha256Hash            0      0.00%     69.08% # Class of committed instruction
system.cpu.commit.op_class_0::SimdSha256Hash2            0      0.00%     69.08% # Class of committed instruction
system.cpu.commit.op_class_0::SimdShaSigma2            0      0.00%     69.08% # Class of committed instruction
system.cpu.commit.op_class_0::SimdShaSigma3            0      0.00%     69.08% # Class of committed instruction
system.cpu.commit.op_class_0::SimdPredAlu            0      0.00%     69.08% # Class of committed instruction
system.cpu.commit.op_class_0::MemRead         1710889     15.08%     84.16% # Class of committed instruction
system.cpu.commit.op_class_0::MemWrite        1797272     15.84%    100.00% # Class of committed instruction
system.cpu.commit.op_class_0::FloatMemRead            0      0.00%    100.00% # Class of committed instruction
system.cpu.commit.op_class_0::FloatMemWrite            0      0.00%    100.00% # Class of committed instruction
system.cpu.commit.op_class_0::IprAccess             0      0.00%    100.00% # Class of committed instruction
system.cpu.commit.op_class_0::InstPrefetch            0      0.00%    100.00% # Class of committed instruction
system.cpu.commit.op_class_0::total          11344837                       # Class of committed instruction
system.cpu.commit.refs                        3508161                       # Number of memory references committed
system.cpu.commit.swp_count                         0                       # Number of s/w prefetches committed
system.cpu.commit.vec_insts                    198825                       # Number of committed Vector instructions.
system.cpu.committedInsts                    10000000                       # Number of Instructions Simulated
system.cpu.committedOps                      11338771                       # Number of Ops (including micro ops) Simulated
system.cpu.cpi                               1.711043                       # CPI: Cycles Per Instruction
system.cpu.cpi_total                         1.711043                       # CPI: Total CPI of All Threads
system.cpu.decode.BlockedCycles               3025346                       # Number of cycles decode is blocked
system.cpu.decode.BranchMispred                   259                       # Number of times decode detected a branch misprediction
system.cpu.decode.BranchResolved               914595                       # Number of times decode resolved a branch
system.cpu.decode.DecodedInsts               11389611                       # Number of instructions handled by decode
system.cpu.decode.IdleCycles                 10315987                       # Number of cycles decode is idle
system.cpu.decode.RunCycles                   2196618                       # Number of cycles decode is running
system.cpu.decode.SquashCycles                   1357                       # Number of cycles decode is squashing
system.cpu.decode.SquashedInsts                   931                       # Number of squashed instructions handled by decode
system.cpu.decode.UnblockCycles                 31275                       # Number of cycles decode is unblocking
system.cpu.dtb.accesses                             0                       # DTB accesses
system.cpu.dtb.align_faults                         0                       # Number of TLB faults due to alignment restrictions
system.cpu.dtb.domain_faults                        0                       # Number of TLB faults due to domain restrictions
system.cpu.dtb.flush_entries                        0                       # Number of entries that have been flushed from TLB
system.cpu.dtb.flush_tlb                            0                       # Number of times complete TLB was flushed
system.cpu.dtb.flush_tlb_asid                       0                       # Number of times TLB was flushed by ASID
system.cpu.dtb.flush_tlb_mva                        0                       # Number of times TLB was flushed by MVA
system.cpu.dtb.flush_tlb_mva_asid                   0                       # Number of times TLB was flushed by MVA & ASID
system.cpu.dtb.hits                                 0                       # DTB hits
system.cpu.dtb.inst_accesses                        0                       # ITB inst accesses
system.cpu.dtb.inst_hits                            0                       # ITB inst hits
system.cpu.dtb.inst_misses                          0                       # ITB inst misses
system.cpu.dtb.misses                               0                       # DTB misses
system.cpu.dtb.perms_faults                         0                       # Number of TLB faults due to permissions restrictions
system.cpu.dtb.prefetch_faults                      0                       # Number of TLB faults due to prefetch
system.cpu.dtb.read_accesses                        0                       # DTB read accesses
system.cpu.dtb.read_hits                            0                       # DTB read hits
system.cpu.dtb.read_misses                          0                       # DTB read misses
system.cpu.dtb.stage2_mmu.stage2_tlb.accesses            0                       # DTB accesses
system.cpu.dtb.stage2_mmu.stage2_tlb.align_faults            0                       # Number of TLB faults due to alignment restrictions
system.cpu.dtb.stage2_mmu.stage2_tlb.domain_faults            0                       # Number of TLB faults due to domain restrictions
system.cpu.dtb.stage2_mmu.stage2_tlb.flush_entries            0                       # Number of entries that have been flushed from TLB
system.cpu.dtb.stage2_mmu.stage2_tlb.flush_tlb            0                       # Number of times complete TLB was flushed
system.cpu.dtb.stage2_mmu.stage2_tlb.flush_tlb_asid            0                       # Number of times TLB was flushed by ASID
system.cpu.dtb.stage2_mmu.stage2_tlb.flush_tlb_mva            0                       # Number of times TLB was flushed by MVA
system.cpu.dtb.stage2_mmu.stage2_tlb.flush_tlb_mva_asid            0                       # Number of times TLB was flushed by MVA & ASID
system.cpu.dtb.stage2_mmu.stage2_tlb.hits            0                       # DTB hits
system.cpu.dtb.stage2_mmu.stage2_tlb.inst_accesses            0                       # ITB inst accesses
system.cpu.dtb.stage2_mmu.stage2_tlb.inst_hits            0                       # ITB inst hits
system.cpu.dtb.stage2_mmu.stage2_tlb.inst_misses            0                       # ITB inst misses
system.cpu.dtb.stage2_mmu.stage2_tlb.misses            0                       # DTB misses
system.cpu.dtb.stage2_mmu.stage2_tlb.perms_faults            0                       # Number of TLB faults due to permissions restrictions
system.cpu.dtb.stage2_mmu.stage2_tlb.prefetch_faults            0                       # Number of TLB faults due to prefetch
system.cpu.dtb.stage2_mmu.stage2_tlb.read_accesses            0                       # DTB read accesses
system.cpu.dtb.stage2_mmu.stage2_tlb.read_hits            0                       # DTB read hits
system.cpu.dtb.stage2_mmu.stage2_tlb.read_misses            0                       # DTB read misses
system.cpu.dtb.stage2_mmu.stage2_tlb.walker.walkRequestOrigin_Requested::Data            0                       # Table walker requests started/completed, data/inst
system.cpu.dtb.stage2_mmu.stage2_tlb.walker.walkRequestOrigin_Requested::Inst            0                       # Table walker requests started/completed, data/inst
system.cpu.dtb.stage2_mmu.stage2_tlb.walker.walkRequestOrigin_Requested::total            0                       # Table walker requests started/completed, data/inst
system.cpu.dtb.stage2_mmu.stage2_tlb.walker.walkRequestOrigin_Completed::Data            0                       # Table walker requests started/completed, data/inst
system.cpu.dtb.stage2_mmu.stage2_tlb.walker.walkRequestOrigin_Completed::Inst            0                       # Table walker requests started/completed, data/inst
system.cpu.dtb.stage2_mmu.stage2_tlb.walker.walkRequestOrigin_Completed::total            0                       # Table walker requests started/completed, data/inst
system.cpu.dtb.stage2_mmu.stage2_tlb.walker.walkRequestOrigin::total            0                       # Table walker requests started/completed, data/inst
system.cpu.dtb.stage2_mmu.stage2_tlb.walker.walks            0                       # Table walker walks requested
system.cpu.dtb.stage2_mmu.stage2_tlb.write_accesses            0                       # DTB write accesses
system.cpu.dtb.stage2_mmu.stage2_tlb.write_hits            0                       # DTB write hits
system.cpu.dtb.stage2_mmu.stage2_tlb.write_misses            0                       # DTB write misses
system.cpu.dtb.walker.walkRequestOrigin_Requested::Data            0                       # Table walker requests started/completed, data/inst
system.cpu.dtb.walker.walkRequestOrigin_Requested::Inst            0                       # Table walker requests started/completed, data/inst
system.cpu.dtb.walker.walkRequestOrigin_Requested::total            0                       # Table walker requests started/completed, data/inst
system.cpu.dtb.walker.walkRequestOrigin_Completed::Data            0                       # Table walker requests started/completed, data/inst
system.cpu.dtb.walker.walkRequestOrigin_Completed::Inst            0                       # Table walker requests started/completed, data/inst
system.cpu.dtb.walker.walkRequestOrigin_Completed::total            0                       # Table walker requests started/completed, data/inst
system.cpu.dtb.walker.walkRequestOrigin::total            0                       # Table walker requests started/completed, data/inst
system.cpu.dtb.walker.walks                         0                       # Table walker walks requested
system.cpu.dtb.write_accesses                       0                       # DTB write accesses
system.cpu.dtb.write_hits                           0                       # DTB write hits
system.cpu.dtb.write_misses                         0                       # DTB write misses
system.cpu.fetch.Branches                     2230079                       # Number of branches that fetch encountered
system.cpu.fetch.CacheLines                   1485048                       # Number of cache lines fetched
system.cpu.fetch.Cycles                       4779263                       # Number of cycles fetch has run and was not squashing or blocked
system.cpu.fetch.IcacheSquashes                   886                       # Number of outstanding Icache misses that were squashed
system.cpu.fetch.IcacheWaitRetryStallCycles           30                       # Number of stall cycles due to full MSHR
system.cpu.fetch.Insts                       10062116                       # Number of instructions fetch has processed
system.cpu.fetch.MiscStallCycles                    2                       # Number of cycles fetch has spent waiting on interrupts, or bad addresses, or out of MSHRs
system.cpu.fetch.SquashCycles                    3228                       # Number of cycles fetch has spent squashing
system.cpu.fetch.branchRate                  0.130334                       # Number of branch fetches per cycle
system.cpu.fetch.icacheStallCycles           10789674                       # Number of cycles fetch is stalled on an Icache miss
system.cpu.fetch.predictedBranches            1054942                       # Number of branches that fetch has predicted taken
system.cpu.fetch.rate                        0.588069                       # Number of inst fetches per cycle
system.cpu.fetch.rateDist::samples           15570583                       # Number of instructions fetched each cycle (Total)
system.cpu.fetch.rateDist::mean              0.732723                       # Number of instructions fetched each cycle (Total)
system.cpu.fetch.rateDist::stdev             2.026573                       # Number of instructions fetched each cycle (Total)
system.cpu.fetch.rateDist::underflows               0      0.00%      0.00% # Number of instructions fetched each cycle (Total)
system.cpu.fetch.rateDist::0                 13307786     85.47%     85.47% # Number of instructions fetched each cycle (Total)
system.cpu.fetch.rateDist::1                   236766      1.52%     86.99% # Number of instructions fetched each cycle (Total)
system.cpu.fetch.rateDist::2                   209856      1.35%     88.34% # Number of instructions fetched each cycle (Total)
system.cpu.fetch.rateDist::3                   291179      1.87%     90.21% # Number of instructions fetched each cycle (Total)
system.cpu.fetch.rateDist::4                   375527      2.41%     92.62% # Number of instructions fetched each cycle (Total)
system.cpu.fetch.rateDist::5                   199767      1.28%     93.90% # Number of instructions fetched each cycle (Total)
system.cpu.fetch.rateDist::6                    61152      0.39%     94.29% # Number of instructions fetched each cycle (Total)
system.cpu.fetch.rateDist::7                    97343      0.63%     94.92% # Number of instructions fetched each cycle (Total)
system.cpu.fetch.rateDist::8                   791207      5.08%    100.00% # Number of instructions fetched each cycle (Total)
system.cpu.fetch.rateDist::overflows                0      0.00%    100.00% # Number of instructions fetched each cycle (Total)
system.cpu.fetch.rateDist::min_value                0                       # Number of instructions fetched each cycle (Total)
system.cpu.fetch.rateDist::max_value                8                       # Number of instructions fetched each cycle (Total)
system.cpu.fetch.rateDist::total             15570583                       # Number of instructions fetched each cycle (Total)
system.cpu.icache.prefetcher.num_hwpf_issued      1376034                       # number of hwpf issued
system.cpu.icache.prefetcher.pfBufferHit        38475                       # number of redundant prefetches already in prefetch queue
system.cpu.icache.prefetcher.pfIdentified      1450920                       # number of prefetch candidates identified
system.cpu.icache.prefetcher.pfInCache              0                       # number of redundant prefetches already in cache/mshr dropped
system.cpu.icache.prefetcher.pfRemovedFull            0                       # number of prefetches dropped due to prefetch queue size
system.cpu.icache.prefetcher.pfSpanPage       1139169                       # number of prefetches that crossed the page
system.cpu.idleCycles                         1539852                       # Total number of cycles that the CPU has spent unscheduled due to idling
system.cpu.iew.branchMispredicts                  800                       # Number of branch mispredicts detected at execute
system.cpu.iew.exec_branches                  2224428                       # Number of branches executed
system.cpu.iew.exec_nop                          6093                       # number of nop insts executed
system.cpu.iew.exec_rate                     0.672587                       # Inst execution rate
system.cpu.iew.exec_refs                      3659170                       # number of memory reference insts executed
system.cpu.iew.exec_stores                    1809041                       # Number of stores executed
system.cpu.iew.exec_swp                             0                       # number of swp insts executed
system.cpu.iew.iewBlockCycles                    4502                       # Number of cycles IEW is blocking
system.cpu.iew.iewDispLoadInsts               1715802                       # Number of dispatched load instructions
system.cpu.iew.iewDispNonSpecInsts              12171                       # Number of dispatched non-speculative instructions
system.cpu.iew.iewDispSquashedInsts               327                       # Number of squashed instructions skipped by dispatch
system.cpu.iew.iewDispStoreInsts              1810425                       # Number of dispatched store instructions
system.cpu.iew.iewDispatchedInsts            11384517                       # Number of instructions dispatched to IQ
system.cpu.iew.iewExecLoadInsts               1850129                       # Number of load instructions executed
system.cpu.iew.iewExecSquashedInsts               840                       # Number of squashed instructions skipped in execute
system.cpu.iew.iewExecutedInsts              11508255                       # Number of executed instructions
system.cpu.iew.iewIQFullEvents                     12                       # Number of times the IQ has become full, causing a stall
system.cpu.iew.iewIdleCycles                        0                       # Number of cycles IEW is idle
system.cpu.iew.iewLSQFullEvents                551571                       # Number of times the LSQ has become full, causing a stall
system.cpu.iew.iewSquashCycles                   1357                       # Number of cycles IEW is squashing
system.cpu.iew.iewUnblockCycles                551583                       # Number of cycles IEW is unblocking
system.cpu.iew.lsq.thread0.blockedLoads             0                       # Number of blocked loads due to partial load-store forwarding
system.cpu.iew.lsq.thread0.cacheBlocked         13216                       # Number of times an access to memory failed due to the cache being blocked
system.cpu.iew.lsq.thread0.forwLoads            72560                       # Number of loads that had data forwarded from stores
system.cpu.iew.lsq.thread0.ignoredResponses            1                       # Number of memory responses ignored because the instruction is squashed
system.cpu.iew.lsq.thread0.invAddrLoads             0                       # Number of loads ignored due to an invalid address
system.cpu.iew.lsq.thread0.invAddrSwpfs             0                       # Number of software prefetches ignored due to an invalid address
system.cpu.iew.lsq.thread0.memOrderViolation           48                       # Number of memory ordering violations
system.cpu.iew.lsq.thread0.rescheduledLoads        72567                       # Number of loads that were rescheduled
system.cpu.iew.lsq.thread0.squashedLoads         4912                       # Number of loads squashed
system.cpu.iew.lsq.thread0.squashedStores        13153                       # Number of stores squashed
system.cpu.iew.memOrderViolationEvents             48                       # Number of memory order violations
system.cpu.iew.predictedNotTakenIncorrect          680                       # Number of branches that were predicted not taken incorrectly
system.cpu.iew.predictedTakenIncorrect            120                       # Number of branches that were predicted taken incorrectly
system.cpu.iew.wb_consumers                  10179669                       # num instructions consuming a value
system.cpu.iew.wb_count                      11369202                       # cumulative count of insts written-back
system.cpu.iew.wb_fanout                     0.528896                       # average fanout of values written-back
system.cpu.iew.wb_producers                   5383983                       # num instructions producing a value
system.cpu.iew.wb_rate                       0.664460                       # insts written-back per cycle
system.cpu.iew.wb_sent                       11372440                       # cumulative count of insts sent to commit
system.cpu.int_regfile_reads                 13090422                       # number of integer regfile reads
system.cpu.int_regfile_writes                 7574570                       # number of integer regfile writes
system.cpu.ipc                               0.584439                       # IPC: Instructions Per Cycle
system.cpu.ipc_total                         0.584439                       # IPC: Total IPC of All Threads
system.cpu.iq.FU_type_0::No_OpClass              8328      0.07%      0.07% # Type of FU issued
system.cpu.iq.FU_type_0::IntAlu               7703495     66.93%     67.01% # Type of FU issued
system.cpu.iq.FU_type_0::IntMult                60466      0.53%     67.53% # Type of FU issued
system.cpu.iq.FU_type_0::IntDiv                     3      0.00%     67.53% # Type of FU issued
system.cpu.iq.FU_type_0::FloatAdd                   0      0.00%     67.53% # Type of FU issued
system.cpu.iq.FU_type_0::FloatCmp                   0      0.00%     67.53% # Type of FU issued
system.cpu.iq.FU_type_0::FloatCvt                   0      0.00%     67.53% # Type of FU issued
system.cpu.iq.FU_type_0::FloatMult                  0      0.00%     67.53% # Type of FU issued
system.cpu.iq.FU_type_0::FloatMultAcc               0      0.00%     67.53% # Type of FU issued
system.cpu.iq.FU_type_0::FloatDiv                   0      0.00%     67.53% # Type of FU issued
system.cpu.iq.FU_type_0::FloatMisc                  0      0.00%     67.53% # Type of FU issued
system.cpu.iq.FU_type_0::FloatSqrt                  0      0.00%     67.53% # Type of FU issued
system.cpu.iq.FU_type_0::SimdAdd                18933      0.16%     67.70% # Type of FU issued
system.cpu.iq.FU_type_0::SimdAddAcc                 0      0.00%     67.70% # Type of FU issued
system.cpu.iq.FU_type_0::SimdAlu                18930      0.16%     67.86% # Type of FU issued
system.cpu.iq.FU_type_0::SimdCmp                16666      0.14%     68.01% # Type of FU issued
system.cpu.iq.FU_type_0::SimdCvt                    0      0.00%     68.01% # Type of FU issued
system.cpu.iq.FU_type_0::SimdMisc               22718      0.20%     68.20% # Type of FU issued
system.cpu.iq.FU_type_0::SimdMult                   0      0.00%     68.20% # Type of FU issued
system.cpu.iq.FU_type_0::SimdMultAcc                0      0.00%     68.20% # Type of FU issued
system.cpu.iq.FU_type_0::SimdShift                  0      0.00%     68.20% # Type of FU issued
system.cpu.iq.FU_type_0::SimdShiftAcc               0      0.00%     68.20% # Type of FU issued
system.cpu.iq.FU_type_0::SimdDiv                    0      0.00%     68.20% # Type of FU issued
system.cpu.iq.FU_type_0::SimdSqrt                   0      0.00%     68.20% # Type of FU issued
system.cpu.iq.FU_type_0::SimdFloatAdd               0      0.00%     68.20% # Type of FU issued
system.cpu.iq.FU_type_0::SimdFloatAlu               0      0.00%     68.20% # Type of FU issued
system.cpu.iq.FU_type_0::SimdFloatCmp               0      0.00%     68.20% # Type of FU issued
system.cpu.iq.FU_type_0::SimdFloatCvt               0      0.00%     68.20% # Type of FU issued
system.cpu.iq.FU_type_0::SimdFloatDiv               0      0.00%     68.20% # Type of FU issued
system.cpu.iq.FU_type_0::SimdFloatMisc              0      0.00%     68.20% # Type of FU issued
system.cpu.iq.FU_type_0::SimdFloatMult              0      0.00%     68.20% # Type of FU issued
system.cpu.iq.FU_type_0::SimdFloatMultAcc            0      0.00%     68.20% # Type of FU issued
system.cpu.iq.FU_type_0::SimdFloatSqrt              0      0.00%     68.20% # Type of FU issued
system.cpu.iq.FU_type_0::SimdReduceAdd              0      0.00%     68.20% # Type of FU issued
system.cpu.iq.FU_type_0::SimdReduceAlu              0      0.00%     68.20% # Type of FU issued
system.cpu.iq.FU_type_0::SimdReduceCmp              0      0.00%     68.20% # Type of FU issued
system.cpu.iq.FU_type_0::SimdFloatReduceAdd            0      0.00%     68.20% # Type of FU issued
system.cpu.iq.FU_type_0::SimdFloatReduceCmp            0      0.00%     68.20% # Type of FU issued
system.cpu.iq.FU_type_0::SimdAes                    0      0.00%     68.20% # Type of FU issued
system.cpu.iq.FU_type_0::SimdAesMix                 0      0.00%     68.20% # Type of FU issued
system.cpu.iq.FU_type_0::SimdSha1Hash               0      0.00%     68.20% # Type of FU issued
system.cpu.iq.FU_type_0::SimdSha1Hash2              0      0.00%     68.20% # Type of FU issued
system.cpu.iq.FU_type_0::SimdSha256Hash             0      0.00%     68.20% # Type of FU issued
system.cpu.iq.FU_type_0::SimdSha256Hash2            0      0.00%     68.20% # Type of FU issued
system.cpu.iq.FU_type_0::SimdShaSigma2              0      0.00%     68.20% # Type of FU issued
system.cpu.iq.FU_type_0::SimdShaSigma3              0      0.00%     68.20% # Type of FU issued
system.cpu.iq.FU_type_0::SimdPredAlu                0      0.00%     68.20% # Type of FU issued
system.cpu.iq.FU_type_0::MemRead              1850300     16.08%     84.28% # Type of FU issued
system.cpu.iq.FU_type_0::MemWrite             1809258     15.72%    100.00% # Type of FU issued
system.cpu.iq.FU_type_0::FloatMemRead               0      0.00%    100.00% # Type of FU issued
system.cpu.iq.FU_type_0::FloatMemWrite              0      0.00%    100.00% # Type of FU issued
system.cpu.iq.FU_type_0::IprAccess                  0      0.00%    100.00% # Type of FU issued
system.cpu.iq.FU_type_0::InstPrefetch               0      0.00%    100.00% # Type of FU issued
system.cpu.iq.FU_type_0::total               11509097                       # Type of FU issued
system.cpu.iq.fp_alu_accesses                       0                       # Number of floating point alu accesses
system.cpu.iq.fp_inst_queue_reads                   0                       # Number of floating instruction queue reads
system.cpu.iq.fp_inst_queue_wakeup_accesses            0                       # Number of floating instruction queue wakeup accesses
system.cpu.iq.fp_inst_queue_writes                  0                       # Number of floating instruction queue writes
system.cpu.iq.fu_busy_cnt                      228912                       # FU busy when requested
system.cpu.iq.fu_busy_rate                   0.019890                       # FU busy rate (busy events/executed inst)
system.cpu.iq.fu_full::No_OpClass                   0      0.00%      0.00% # attempts to use FU when none available
system.cpu.iq.fu_full::IntAlu                   30007     13.11%     13.11% # attempts to use FU when none available
system.cpu.iq.fu_full::IntMult                      0      0.00%     13.11% # attempts to use FU when none available
system.cpu.iq.fu_full::IntDiv                       0      0.00%     13.11% # attempts to use FU when none available
system.cpu.iq.fu_full::FloatAdd                     0      0.00%     13.11% # attempts to use FU when none available
system.cpu.iq.fu_full::FloatCmp                     0      0.00%     13.11% # attempts to use FU when none available
system.cpu.iq.fu_full::FloatCvt                     0      0.00%     13.11% # attempts to use FU when none available
system.cpu.iq.fu_full::FloatMult                    0      0.00%     13.11% # attempts to use FU when none available
system.cpu.iq.fu_full::FloatMultAcc                 0      0.00%     13.11% # attempts to use FU when none available
system.cpu.iq.fu_full::FloatDiv                     0      0.00%     13.11% # attempts to use FU when none available
system.cpu.iq.fu_full::FloatMisc                    0      0.00%     13.11% # attempts to use FU when none available
system.cpu.iq.fu_full::FloatSqrt                    0      0.00%     13.11% # attempts to use FU when none available
system.cpu.iq.fu_full::SimdAdd                      0      0.00%     13.11% # attempts to use FU when none available
system.cpu.iq.fu_full::SimdAddAcc                   0      0.00%     13.11% # attempts to use FU when none available
system.cpu.iq.fu_full::SimdAlu                      2      0.00%     13.11% # attempts to use FU when none available
system.cpu.iq.fu_full::SimdCmp                      2      0.00%     13.11% # attempts to use FU when none available
system.cpu.iq.fu_full::SimdCvt                      0      0.00%     13.11% # attempts to use FU when none available
system.cpu.iq.fu_full::SimdMisc                     0      0.00%     13.11% # attempts to use FU when none available
system.cpu.iq.fu_full::SimdMult                     0      0.00%     13.11% # attempts to use FU when none available
system.cpu.iq.fu_full::SimdMultAcc                  0      0.00%     13.11% # attempts to use FU when none available
system.cpu.iq.fu_full::SimdShift                    0      0.00%     13.11% # attempts to use FU when none available
system.cpu.iq.fu_full::SimdShiftAcc                 0      0.00%     13.11% # attempts to use FU when none available
system.cpu.iq.fu_full::SimdDiv                      0      0.00%     13.11% # attempts to use FU when none available
system.cpu.iq.fu_full::SimdSqrt                     0      0.00%     13.11% # attempts to use FU when none available
system.cpu.iq.fu_full::SimdFloatAdd                 0      0.00%     13.11% # attempts to use FU when none available
system.cpu.iq.fu_full::SimdFloatAlu                 0      0.00%     13.11% # attempts to use FU when none available
system.cpu.iq.fu_full::SimdFloatCmp                 0      0.00%     13.11% # attempts to use FU when none available
system.cpu.iq.fu_full::SimdFloatCvt                 0      0.00%     13.11% # attempts to use FU when none available
system.cpu.iq.fu_full::SimdFloatDiv                 0      0.00%     13.11% # attempts to use FU when none available
system.cpu.iq.fu_full::SimdFloatMisc                0      0.00%     13.11% # attempts to use FU when none available
system.cpu.iq.fu_full::SimdFloatMult                0      0.00%     13.11% # attempts to use FU when none available
system.cpu.iq.fu_full::SimdFloatMultAcc             0      0.00%     13.11% # attempts to use FU when none available
system.cpu.iq.fu_full::SimdFloatSqrt                0      0.00%     13.11% # attempts to use FU when none available
system.cpu.iq.fu_full::SimdReduceAdd                0      0.00%     13.11% # attempts to use FU when none available
system.cpu.iq.fu_full::SimdReduceAlu                0      0.00%     13.11% # attempts to use FU when none available
system.cpu.iq.fu_full::SimdReduceCmp                0      0.00%     13.11% # attempts to use FU when none available
system.cpu.iq.fu_full::SimdFloatReduceAdd            0      0.00%     13.11% # attempts to use FU when none available
system.cpu.iq.fu_full::SimdFloatReduceCmp            0      0.00%     13.11% # attempts to use FU when none available
system.cpu.iq.fu_full::SimdAes                      0      0.00%     13.11% # attempts to use FU when none available
system.cpu.iq.fu_full::SimdAesMix                   0      0.00%     13.11% # attempts to use FU when none available
system.cpu.iq.fu_full::SimdSha1Hash                 0      0.00%     13.11% # attempts to use FU when none available
system.cpu.iq.fu_full::SimdSha1Hash2                0      0.00%     13.11% # attempts to use FU when none available
system.cpu.iq.fu_full::SimdSha256Hash               0      0.00%     13.11% # attempts to use FU when none available
system.cpu.iq.fu_full::SimdSha256Hash2              0      0.00%     13.11% # attempts to use FU when none available
system.cpu.iq.fu_full::SimdShaSigma2                0      0.00%     13.11% # attempts to use FU when none available
system.cpu.iq.fu_full::SimdShaSigma3                0      0.00%     13.11% # attempts to use FU when none available
system.cpu.iq.fu_full::SimdPredAlu                  0      0.00%     13.11% # attempts to use FU when none available
system.cpu.iq.fu_full::MemRead                  64284     28.08%     41.19% # attempts to use FU when none available
system.cpu.iq.fu_full::MemWrite                134617     58.81%    100.00% # attempts to use FU when none available
system.cpu.iq.fu_full::FloatMemRead                 0      0.00%    100.00% # attempts to use FU when none available
system.cpu.iq.fu_full::FloatMemWrite                0      0.00%    100.00% # attempts to use FU when none available
system.cpu.iq.fu_full::IprAccess                    0      0.00%    100.00% # attempts to use FU when none available
system.cpu.iq.fu_full::InstPrefetch                 0      0.00%    100.00% # attempts to use FU when none available
system.cpu.iq.int_alu_accesses               11514684                       # Number of integer alu accesses
system.cpu.iq.int_inst_queue_reads           38395343                       # Number of integer instruction queue reads
system.cpu.iq.int_inst_queue_wakeup_accesses     11170147                       # Number of integer instruction queue wakeup accesses
system.cpu.iq.int_inst_queue_writes          11218052                       # Number of integer instruction queue writes
system.cpu.iq.iqInstsAdded                   11366253                       # Number of instructions added to the IQ (excludes non-spec)
system.cpu.iq.iqInstsIssued                  11509097                       # Number of instructions issued
system.cpu.iq.iqNonSpecInstsAdded               12171                       # Number of non-speculative instructions added to the IQ
system.cpu.iq.iqSquashedInstsExamined           39645                       # Number of squashed instructions iterated over during squash; mainly for profiling
system.cpu.iq.iqSquashedInstsIssued               146                       # Number of squashed instructions issued
system.cpu.iq.iqSquashedNonSpecRemoved             29                       # Number of squashed non-spec instructions that were removed
system.cpu.iq.iqSquashedOperandsExamined        15457                       # Number of squashed operands that are examined and possibly removed from graph
system.cpu.iq.issued_per_cycle::samples      15570583                       # Number of insts issued each cycle
system.cpu.iq.issued_per_cycle::mean         0.739156                       # Number of insts issued each cycle
system.cpu.iq.issued_per_cycle::stdev        1.527018                       # Number of insts issued each cycle
system.cpu.iq.issued_per_cycle::underflows            0      0.00%      0.00% # Number of insts issued each cycle
system.cpu.iq.issued_per_cycle::0            11425986     73.38%     73.38% # Number of insts issued each cycle
system.cpu.iq.issued_per_cycle::1             1261907      8.10%     81.49% # Number of insts issued each cycle
system.cpu.iq.issued_per_cycle::2              991536      6.37%     87.85% # Number of insts issued each cycle
system.cpu.iq.issued_per_cycle::3              661767      4.25%     92.10% # Number of insts issued each cycle
system.cpu.iq.issued_per_cycle::4              472629      3.04%     95.14% # Number of insts issued each cycle
system.cpu.iq.issued_per_cycle::5              340543      2.19%     97.33% # Number of insts issued each cycle
system.cpu.iq.issued_per_cycle::6              289452      1.86%     99.19% # Number of insts issued each cycle
system.cpu.iq.issued_per_cycle::7               65230      0.42%     99.60% # Number of insts issued each cycle
system.cpu.iq.issued_per_cycle::8               61533      0.40%    100.00% # Number of insts issued each cycle
system.cpu.iq.issued_per_cycle::overflows            0      0.00%    100.00% # Number of insts issued each cycle
system.cpu.iq.issued_per_cycle::min_value            0                       # Number of insts issued each cycle
system.cpu.iq.issued_per_cycle::max_value            8                       # Number of insts issued each cycle
system.cpu.iq.issued_per_cycle::total        15570583                       # Number of insts issued each cycle
system.cpu.iq.rate                           0.672636                       # Inst issue rate
system.cpu.iq.vec_alu_accesses                 214997                       # Number of vector alu accesses
system.cpu.iq.vec_inst_queue_reads             422490                       # Number of vector instruction queue reads
system.cpu.iq.vec_inst_queue_wakeup_accesses       199055                       # Number of vector instruction queue wakeup accesses
system.cpu.iq.vec_inst_queue_writes            200065                       # Number of vector instruction queue writes
system.cpu.itb.accesses                             0                       # DTB accesses
system.cpu.itb.align_faults                         0                       # Number of TLB faults due to alignment restrictions
system.cpu.itb.domain_faults                        0                       # Number of TLB faults due to domain restrictions
system.cpu.itb.flush_entries                        0                       # Number of entries that have been flushed from TLB
system.cpu.itb.flush_tlb                            0                       # Number of times complete TLB was flushed
system.cpu.itb.flush_tlb_asid                       0                       # Number of times TLB was flushed by ASID
system.cpu.itb.flush_tlb_mva                        0                       # Number of times TLB was flushed by MVA
system.cpu.itb.flush_tlb_mva_asid                   0                       # Number of times TLB was flushed by MVA & ASID
system.cpu.itb.hits                                 0                       # DTB hits
system.cpu.itb.inst_accesses                        0                       # ITB inst accesses
system.cpu.itb.inst_hits                            0                       # ITB inst hits
system.cpu.itb.inst_misses                          0                       # ITB inst misses
system.cpu.itb.misses                               0                       # DTB misses
system.cpu.itb.perms_faults                         0                       # Number of TLB faults due to permissions restrictions
system.cpu.itb.prefetch_faults                      0                       # Number of TLB faults due to prefetch
system.cpu.itb.read_accesses                        0                       # DTB read accesses
system.cpu.itb.read_hits                            0                       # DTB read hits
system.cpu.itb.read_misses                          0                       # DTB read misses
system.cpu.itb.stage2_mmu.stage2_tlb.accesses            0                       # DTB accesses
system.cpu.itb.stage2_mmu.stage2_tlb.align_faults            0                       # Number of TLB faults due to alignment restrictions
system.cpu.itb.stage2_mmu.stage2_tlb.domain_faults            0                       # Number of TLB faults due to domain restrictions
system.cpu.itb.stage2_mmu.stage2_tlb.flush_entries            0                       # Number of entries that have been flushed from TLB
system.cpu.itb.stage2_mmu.stage2_tlb.flush_tlb            0                       # Number of times complete TLB was flushed
system.cpu.itb.stage2_mmu.stage2_tlb.flush_tlb_asid            0                       # Number of times TLB was flushed by ASID
system.cpu.itb.stage2_mmu.stage2_tlb.flush_tlb_mva            0                       # Number of times TLB was flushed by MVA
system.cpu.itb.stage2_mmu.stage2_tlb.flush_tlb_mva_asid            0                       # Number of times TLB was flushed by MVA & ASID
system.cpu.itb.stage2_mmu.stage2_tlb.hits            0                       # DTB hits
system.cpu.itb.stage2_mmu.stage2_tlb.inst_accesses            0                       # ITB inst accesses
system.cpu.itb.stage2_mmu.stage2_tlb.inst_hits            0                       # ITB inst hits
system.cpu.itb.stage2_mmu.stage2_tlb.inst_misses            0                       # ITB inst misses
system.cpu.itb.stage2_mmu.stage2_tlb.misses            0                       # DTB misses
system.cpu.itb.stage2_mmu.stage2_tlb.perms_faults            0                       # Number of TLB faults due to permissions restrictions
system.cpu.itb.stage2_mmu.stage2_tlb.prefetch_faults            0                       # Number of TLB faults due to prefetch
system.cpu.itb.stage2_mmu.stage2_tlb.read_accesses            0                       # DTB read accesses
system.cpu.itb.stage2_mmu.stage2_tlb.read_hits            0                       # DTB read hits
system.cpu.itb.stage2_mmu.stage2_tlb.read_misses            0                       # DTB read misses
system.cpu.itb.stage2_mmu.stage2_tlb.walker.walkRequestOrigin_Requested::Data            0                       # Table walker requests started/completed, data/inst
system.cpu.itb.stage2_mmu.stage2_tlb.walker.walkRequestOrigin_Requested::Inst            0                       # Table walker requests started/completed, data/inst
system.cpu.itb.stage2_mmu.stage2_tlb.walker.walkRequestOrigin_Requested::total            0                       # Table walker requests started/completed, data/inst
system.cpu.itb.stage2_mmu.stage2_tlb.walker.walkRequestOrigin_Completed::Data            0                       # Table walker requests started/completed, data/inst
system.cpu.itb.stage2_mmu.stage2_tlb.walker.walkRequestOrigin_Completed::Inst            0                       # Table walker requests started/completed, data/inst
system.cpu.itb.stage2_mmu.stage2_tlb.walker.walkRequestOrigin_Completed::total            0                       # Table walker requests started/completed, data/inst
system.cpu.itb.stage2_mmu.stage2_tlb.walker.walkRequestOrigin::total            0                       # Table walker requests started/completed, data/inst
system.cpu.itb.stage2_mmu.stage2_tlb.walker.walks            0                       # Table walker walks requested
system.cpu.itb.stage2_mmu.stage2_tlb.write_accesses            0                       # DTB write accesses
system.cpu.itb.stage2_mmu.stage2_tlb.write_hits            0                       # DTB write hits
system.cpu.itb.stage2_mmu.stage2_tlb.write_misses            0                       # DTB write misses
system.cpu.itb.walker.walkRequestOrigin_Requested::Data            0                       # Table walker requests started/completed, data/inst
system.cpu.itb.walker.walkRequestOrigin_Requested::Inst            0                       # Table walker requests started/completed, data/inst
system.cpu.itb.walker.walkRequestOrigin_Requested::total            0                       # Table walker requests started/completed, data/inst
system.cpu.itb.walker.walkRequestOrigin_Completed::Data            0                       # Table walker requests started/completed, data/inst
system.cpu.itb.walker.walkRequestOrigin_Completed::Inst            0                       # Table walker requests started/completed, data/inst
system.cpu.itb.walker.walkRequestOrigin_Completed::total            0                       # Table walker requests started/completed, data/inst
system.cpu.itb.walker.walkRequestOrigin::total            0                       # Table walker requests started/completed, data/inst
system.cpu.itb.walker.walks                         0                       # Table walker walks requested
system.cpu.itb.write_accesses                       0                       # DTB write accesses
system.cpu.itb.write_hits                           0                       # DTB write hits
system.cpu.itb.write_misses                         0                       # DTB write misses
system.cpu.memDep0.conflictingLoads             48612                       # Number of conflicting loads.
system.cpu.memDep0.conflictingStores            36318                       # Number of conflicting stores.
system.cpu.memDep0.insertedLoads              1715802                       # Number of loads inserted to the mem dependence unit.
system.cpu.memDep0.insertedStores             1810425                       # Number of stores inserted to the mem dependence unit.
system.cpu.misc_regfile_reads                 7786325                       # number of misc regfile reads
system.cpu.misc_regfile_writes                  48481                       # number of misc regfile writes
system.cpu.numCycles                         17110435                       # number of cpu cycles simulated
system.cpu.numWorkItemsCompleted                    0                       # number of work items this cpu completed
system.cpu.numWorkItemsStarted                      0                       # number of work items this cpu started
system.cpu.rename.BlockCycles                  556119                       # Number of cycles rename is blocking
system.cpu.rename.CommittedMaps              12114552                       # Number of HB maps that are committed
system.cpu.rename.IQFullEvents                     76                       # Number of times rename has blocked due to IQ full
system.cpu.rename.IdleCycles                 10334873                       # Number of cycles rename is idle
system.cpu.rename.LQFullEvents                     12                       # Number of times rename has blocked due to LQ full
system.cpu.rename.ROBFullEvents                     5                       # Number of times rename has blocked due to ROB full
system.cpu.rename.RenameLookups              18371252                       # Number of register rename lookups that rename has made
system.cpu.rename.RenamedInsts               11386416                       # Number of instructions processed by rename
system.cpu.rename.RenamedOperands            12146688                       # Number of destination operands rename has renamed
system.cpu.rename.RunCycles                   2209006                       # Number of cycles rename is running
system.cpu.rename.SQFullEvents                 110341                       # Number of times rename has blocked due to SQ full
system.cpu.rename.SquashCycles                   1357                       # Number of cycles rename is squashing
system.cpu.rename.UnblockCycles                158917                       # Number of cycles rename is unblocking
system.cpu.rename.UndoneMaps                    32114                       # Number of HB maps that are undone due to squashing
system.cpu.rename.int_rename_lookups         12963889                       # Number of integer rename lookups
system.cpu.rename.serializeStallCycles        2310311                       # count of cycles rename stalled for serializing inst
system.cpu.rename.serializingInsts              36792                       # count of serializing insts renamed
system.cpu.rename.skidInsts                    239535                       # count of insts added to the skid buffer
system.cpu.rename.tempSerializingInsts          12171                       # count of temporary serializing insts renamed
system.cpu.rename.vec_rename_lookups           242067                       # Number of vector rename lookups
system.cpu.rob.rob_reads                     26577081                       # The number of ROB reads
system.cpu.rob.rob_writes                    22773242                       # The number of ROB writes
system.cpu.timesIdled                          320393                       # Number of times that the entire CPU went into an idle state and unscheduled itself
system.cpu.vec_regfile_reads                   241453                       # number of vector regfile reads
system.cpu.vec_regfile_writes                   99969                       # number of vector regfile writes
system.cpu.workload.numSyscalls                    21                       # Number of system calls
system.membus.snoop_filter.hit_multi_requests            0                       # Number of requests hitting in the snoop filter with multiple (>1) holders of the requested data.
system.membus.snoop_filter.hit_multi_snoops            0                       # Number of snoops hitting in the snoop filter with multiple (>1) holders of the requested data.
system.membus.snoop_filter.hit_single_requests         5828                       # Number of requests hitting in the snoop filter with a single holder of the requested data.
system.membus.snoop_filter.hit_single_snoops            0                       # Number of snoops hitting in the snoop filter with a single holder of the requested data.
system.membus.snoop_filter.tot_requests         44477                       # Total number of requests made to the snoop filter.
system.membus.snoop_filter.tot_snoops               0                       # Total number of snoops made to the snoop filter.
system.tol2bus.snoop_filter.hit_multi_requests            1                       # Number of requests hitting in the snoop filter with multiple (>1) holders of the requested data.
system.tol2bus.snoop_filter.hit_multi_snoops            0                       # Number of snoops hitting in the snoop filter with multiple (>1) holders of the requested data.
system.tol2bus.snoop_filter.hit_single_requests       946798                       # Number of requests hitting in the snoop filter with a single holder of the requested data.
system.tol2bus.snoop_filter.hit_single_snoops           51                       # Number of snoops hitting in the snoop filter with a single holder of the requested data.
system.tol2bus.snoop_filter.tot_requests      1894685                       # Total number of requests made to the snoop filter.
system.tol2bus.snoop_filter.tot_snoops             51                       # Total number of snoops made to the snoop filter.
system.membus.trans_dist::ReadResp               5381                       # Transaction distribution
system.membus.trans_dist::WritebackDirty         5395                       # Transaction distribution
system.membus.trans_dist::CleanEvict              433                       # Transaction distribution
system.membus.trans_dist::ReadExReq             33253                       # Transaction distribution
system.membus.trans_dist::ReadExResp            33253                       # Transaction distribution
system.membus.trans_dist::ReadSharedReq          5381                       # Transaction distribution
system.membus.trans_dist::InvalidateReq            15                       # Transaction distribution
system.membus.pkt_count_system.l2.mem_side::system.mem_ctrls.port        83111                       # Packet count per connected master and slave (bytes)
system.membus.pkt_count::total                  83111                       # Packet count per connected master and slave (bytes)
system.membus.pkt_size_system.l2.mem_side::system.mem_ctrls.port      2817856                       # Cumulative packet size per connected master and slave (bytes)
system.membus.pkt_size::total                 2817856                       # Cumulative packet size per connected master and slave (bytes)
system.membus.snoops                                0                       # Total snoops (count)
system.membus.snoopTraffic                          0                       # Total snoop traffic (bytes)
system.membus.snoop_fanout::samples             38649                       # Request fanout histogram
system.membus.snoop_fanout::mean                    0                       # Request fanout histogram
system.membus.snoop_fanout::stdev                   0                       # Request fanout histogram
system.membus.snoop_fanout::underflows              0      0.00%      0.00% # Request fanout histogram
system.membus.snoop_fanout::0                   38649    100.00%    100.00% # Request fanout histogram
system.membus.snoop_fanout::1                       0      0.00%    100.00% # Request fanout histogram
system.membus.snoop_fanout::overflows               0      0.00%    100.00% # Request fanout histogram
system.membus.snoop_fanout::min_value               0                       # Request fanout histogram
system.membus.snoop_fanout::max_value               0                       # Request fanout histogram
system.membus.snoop_fanout::total               38649                       # Request fanout histogram
system.membus.reqLayer0.occupancy            74634500                       # Layer occupancy (ticks)
system.membus.reqLayer0.utilization               0.9                       # Layer utilization (%)
system.membus.respLayer1.occupancy          199761750                       # Layer occupancy (ticks)
system.membus.respLayer1.utilization              2.3                       # Layer utilization (%)
system.membus.power_state.pwrStateResidencyTicks::UNDEFINED   8555217000                       # Cumulative time (in ticks) in various power states
system.tol2bus.trans_dist::ReadResp            914615                       # Transaction distribution
system.tol2bus.trans_dist::WritebackDirty        42411                       # Transaction distribution
system.tol2bus.trans_dist::WritebackClean       908468                       # Transaction distribution
system.tol2bus.trans_dist::CleanEvict            1798                       # Transaction distribution
system.tol2bus.trans_dist::ReadExReq            33256                       # Transaction distribution
system.tol2bus.trans_dist::ReadExResp           33256                       # Transaction distribution
system.tol2bus.trans_dist::ReadCleanReq        908533                       # Transaction distribution
system.tol2bus.trans_dist::ReadSharedReq         6083                       # Transaction distribution
system.tol2bus.trans_dist::InvalidateReq           15                       # Transaction distribution
system.tol2bus.trans_dist::InvalidateResp           15                       # Transaction distribution
system.tol2bus.pkt_count_system.cpu.icache.mem_side::system.l2.cpu_side      2725533                       # Packet count per connected master and slave (bytes)
system.tol2bus.pkt_count_system.cpu.dcache.mem_side::system.l2.cpu_side       117038                       # Packet count per connected master and slave (bytes)
system.tol2bus.pkt_count::total               2842571                       # Packet count per connected master and slave (bytes)
system.tol2bus.pkt_size_system.cpu.icache.mem_side::system.l2.cpu_side    116288000                       # Cumulative packet size per connected master and slave (bytes)
system.tol2bus.pkt_size_system.cpu.dcache.mem_side::system.l2.cpu_side      4886720                       # Cumulative packet size per connected master and slave (bytes)
system.tol2bus.pkt_size::total              121174720                       # Cumulative packet size per connected master and slave (bytes)
system.tol2bus.snoops                            5879                       # Total snoops (count)
system.tol2bus.snoopTraffic                    345280                       # Total snoop traffic (bytes)
system.tol2bus.snoop_fanout::samples           953766                       # Request fanout histogram
system.tol2bus.snoop_fanout::mean            0.000055                       # Request fanout histogram
system.tol2bus.snoop_fanout::stdev           0.007384                       # Request fanout histogram
system.tol2bus.snoop_fanout::underflows             0      0.00%      0.00% # Request fanout histogram
system.tol2bus.snoop_fanout::0                 953714     99.99%     99.99% # Request fanout histogram
system.tol2bus.snoop_fanout::1                     52      0.01%    100.00% # Request fanout histogram
system.tol2bus.snoop_fanout::2                      0      0.00%    100.00% # Request fanout histogram
system.tol2bus.snoop_fanout::overflows              0      0.00%    100.00% # Request fanout histogram
system.tol2bus.snoop_fanout::min_value              0                       # Request fanout histogram
system.tol2bus.snoop_fanout::max_value              1                       # Request fanout histogram
system.tol2bus.snoop_fanout::total             953766                       # Request fanout histogram
system.tol2bus.reqLayer0.occupancy         2063666531                       # Layer occupancy (ticks)
system.tol2bus.reqLayer0.utilization             24.1                       # Layer utilization (%)
system.tol2bus.respLayer1.occupancy          59054922                       # Layer occupancy (ticks)
system.tol2bus.respLayer1.utilization             0.7                       # Layer utilization (%)
system.tol2bus.respLayer0.occupancy        1362798499                       # Layer occupancy (ticks)
system.tol2bus.respLayer0.utilization            15.9                       # Layer utilization (%)
system.tol2bus.power_state.pwrStateResidencyTicks::UNDEFINED   8555217000                       # Cumulative time (in ticks) in various power states
system.voltage_domain.voltage                       1                       # Voltage in Volts
system.clk_domain.clock                          1000                       # Clock period in ticks
system.l2.demand_hits::.cpu.inst               350228                       # number of demand (read+write) hits
system.l2.demand_hits::.cpu.data                 1225                       # number of demand (read+write) hits
system.l2.demand_hits::.cpu.icache.prefetcher       557785                       # number of demand (read+write) hits
system.l2.demand_hits::total                   909238                       # number of demand (read+write) hits
system.l2.overall_hits::.cpu.inst              350228                       # number of overall hits
system.l2.overall_hits::.cpu.data                1225                       # number of overall hits
system.l2.overall_hits::.cpu.icache.prefetcher       557785                       # number of overall hits
system.l2.overall_hits::total                  909238                       # number of overall hits
system.l2.demand_misses::.cpu.inst                520                       # number of demand (read+write) misses
system.l2.demand_misses::.cpu.data              38114                       # number of demand (read+write) misses
system.l2.demand_misses::total                  38634                       # number of demand (read+write) misses
system.l2.overall_misses::.cpu.inst               520                       # number of overall misses
system.l2.overall_misses::.cpu.data             38114                       # number of overall misses
system.l2.overall_misses::total                 38634                       # number of overall misses
system.l2.demand_miss_latency::.cpu.inst     40197500                       # number of demand (read+write) miss cycles
system.l2.demand_miss_latency::.cpu.data   3119803500                       # number of demand (read+write) miss cycles
system.l2.demand_miss_latency::total       3160001000                       # number of demand (read+write) miss cycles
system.l2.overall_miss_latency::.cpu.inst     40197500                       # number of overall miss cycles
system.l2.overall_miss_latency::.cpu.data   3119803500                       # number of overall miss cycles
system.l2.overall_miss_latency::total      3160001000                       # number of overall miss cycles
system.l2.demand_accesses::.cpu.inst           350748                       # number of demand (read+write) accesses
system.l2.demand_accesses::.cpu.data            39339                       # number of demand (read+write) accesses
system.l2.demand_accesses::.cpu.icache.prefetcher       557785                       # number of demand (read+write) accesses
system.l2.demand_accesses::total               947872                       # number of demand (read+write) accesses
system.l2.overall_accesses::.cpu.inst          350748                       # number of overall (read+write) accesses
system.l2.overall_accesses::.cpu.data           39339                       # number of overall (read+write) accesses
system.l2.overall_accesses::.cpu.icache.prefetcher       557785                       # number of overall (read+write) accesses
system.l2.overall_accesses::total              947872                       # number of overall (read+write) accesses
system.l2.demand_miss_rate::.cpu.inst        0.001483                       # miss rate for demand accesses
system.l2.demand_miss_rate::.cpu.data        0.968860                       # miss rate for demand accesses
system.l2.demand_miss_rate::total            0.040759                       # miss rate for demand accesses
system.l2.overall_miss_rate::.cpu.inst       0.001483                       # miss rate for overall accesses
system.l2.overall_miss_rate::.cpu.data       0.968860                       # miss rate for overall accesses
system.l2.overall_miss_rate::total           0.040759                       # miss rate for overall accesses
system.l2.demand_avg_miss_latency::.cpu.inst 77302.884615                       # average overall miss latency
system.l2.demand_avg_miss_latency::.cpu.data 81854.528520                       # average overall miss latency
system.l2.demand_avg_miss_latency::total 81793.265000                       # average overall miss latency
system.l2.overall_avg_miss_latency::.cpu.inst 77302.884615                       # average overall miss latency
system.l2.overall_avg_miss_latency::.cpu.data 81854.528520                       # average overall miss latency
system.l2.overall_avg_miss_latency::total 81793.265000                       # average overall miss latency
system.l2.blocked_cycles::no_mshrs                  0                       # number of cycles access was blocked
system.l2.blocked_cycles::no_targets                0                       # number of cycles access was blocked
system.l2.blocked::no_mshrs                         0                       # number of cycles access was blocked
system.l2.blocked::no_targets                       0                       # number of cycles access was blocked
system.l2.avg_blocked_cycles::no_mshrs            nan                       # average number of cycles each access was blocked
system.l2.avg_blocked_cycles::no_targets          nan                       # average number of cycles each access was blocked
system.l2.writebacks::.writebacks                5395                       # number of writebacks
system.l2.writebacks::total                      5395                       # number of writebacks
system.l2.demand_mshr_misses::.cpu.inst           520                       # number of demand (read+write) MSHR misses
system.l2.demand_mshr_misses::.cpu.data         38114                       # number of demand (read+write) MSHR misses
system.l2.demand_mshr_misses::total             38634                       # number of demand (read+write) MSHR misses
system.l2.overall_mshr_misses::.cpu.inst          520                       # number of overall MSHR misses
system.l2.overall_mshr_misses::.cpu.data        38114                       # number of overall MSHR misses
system.l2.overall_mshr_misses::total            38634                       # number of overall MSHR misses
system.l2.demand_mshr_miss_latency::.cpu.inst     34997500                       # number of demand (read+write) MSHR miss cycles
system.l2.demand_mshr_miss_latency::.cpu.data   2738663500                       # number of demand (read+write) MSHR miss cycles
system.l2.demand_mshr_miss_latency::total   2773661000                       # number of demand (read+write) MSHR miss cycles
system.l2.overall_mshr_miss_latency::.cpu.inst     34997500                       # number of overall MSHR miss cycles
system.l2.overall_mshr_miss_latency::.cpu.data   2738663500                       # number of overall MSHR miss cycles
system.l2.overall_mshr_miss_latency::total   2773661000                       # number of overall MSHR miss cycles
system.l2.demand_mshr_miss_rate::.cpu.inst     0.001483                       # mshr miss rate for demand accesses
system.l2.demand_mshr_miss_rate::.cpu.data     0.968860                       # mshr miss rate for demand accesses
system.l2.demand_mshr_miss_rate::total       0.040759                       # mshr miss rate for demand accesses
system.l2.overall_mshr_miss_rate::.cpu.inst     0.001483                       # mshr miss rate for overall accesses
system.l2.overall_mshr_miss_rate::.cpu.data     0.968860                       # mshr miss rate for overall accesses
system.l2.overall_mshr_miss_rate::total      0.040759                       # mshr miss rate for overall accesses
system.l2.demand_avg_mshr_miss_latency::.cpu.inst 67302.884615                       # average overall mshr miss latency
system.l2.demand_avg_mshr_miss_latency::.cpu.data 71854.528520                       # average overall mshr miss latency
system.l2.demand_avg_mshr_miss_latency::total 71793.265000                       # average overall mshr miss latency
system.l2.overall_avg_mshr_miss_latency::.cpu.inst 67302.884615                       # average overall mshr miss latency
system.l2.overall_avg_mshr_miss_latency::.cpu.data 71854.528520                       # average overall mshr miss latency
system.l2.overall_avg_mshr_miss_latency::total 71793.265000                       # average overall mshr miss latency
system.l2.replacements                           5879                       # number of replacements
system.l2.WritebackDirty_hits::.writebacks        37016                       # number of WritebackDirty hits
system.l2.WritebackDirty_hits::total            37016                       # number of WritebackDirty hits
system.l2.WritebackDirty_accesses::.writebacks        37016                       # number of WritebackDirty accesses(hits+misses)
system.l2.WritebackDirty_accesses::total        37016                       # number of WritebackDirty accesses(hits+misses)
system.l2.WritebackClean_hits::.writebacks       908467                       # number of WritebackClean hits
system.l2.WritebackClean_hits::total           908467                       # number of WritebackClean hits
system.l2.WritebackClean_accesses::.writebacks       908467                       # number of WritebackClean accesses(hits+misses)
system.l2.WritebackClean_accesses::total       908467                       # number of WritebackClean accesses(hits+misses)
system.l2.ReadExReq_hits::.cpu.data                 3                       # number of ReadExReq hits
system.l2.ReadExReq_hits::total                     3                       # number of ReadExReq hits
system.l2.ReadExReq_misses::.cpu.data           33253                       # number of ReadExReq misses
system.l2.ReadExReq_misses::total               33253                       # number of ReadExReq misses
system.l2.ReadExReq_miss_latency::.cpu.data   2735337500                       # number of ReadExReq miss cycles
system.l2.ReadExReq_miss_latency::total    2735337500                       # number of ReadExReq miss cycles
system.l2.ReadExReq_accesses::.cpu.data         33256                       # number of ReadExReq accesses(hits+misses)
system.l2.ReadExReq_accesses::total             33256                       # number of ReadExReq accesses(hits+misses)
system.l2.ReadExReq_miss_rate::.cpu.data     0.999910                       # miss rate for ReadExReq accesses
system.l2.ReadExReq_miss_rate::total         0.999910                       # miss rate for ReadExReq accesses
system.l2.ReadExReq_avg_miss_latency::.cpu.data 82258.367666                       # average ReadExReq miss latency
system.l2.ReadExReq_avg_miss_latency::total 82258.367666                       # average ReadExReq miss latency
system.l2.ReadExReq_mshr_misses::.cpu.data        33253                       # number of ReadExReq MSHR misses
system.l2.ReadExReq_mshr_misses::total          33253                       # number of ReadExReq MSHR misses
system.l2.ReadExReq_mshr_miss_latency::.cpu.data   2402807500                       # number of ReadExReq MSHR miss cycles
system.l2.ReadExReq_mshr_miss_latency::total   2402807500                       # number of ReadExReq MSHR miss cycles
system.l2.ReadExReq_mshr_miss_rate::.cpu.data     0.999910                       # mshr miss rate for ReadExReq accesses
system.l2.ReadExReq_mshr_miss_rate::total     0.999910                       # mshr miss rate for ReadExReq accesses
system.l2.ReadExReq_avg_mshr_miss_latency::.cpu.data 72258.367666                       # average ReadExReq mshr miss latency
system.l2.ReadExReq_avg_mshr_miss_latency::total 72258.367666                       # average ReadExReq mshr miss latency
system.l2.ReadCleanReq_hits::.cpu.inst         350228                       # number of ReadCleanReq hits
system.l2.ReadCleanReq_hits::.cpu.icache.prefetcher       557785                       # number of ReadCleanReq hits
system.l2.ReadCleanReq_hits::total             908013                       # number of ReadCleanReq hits
system.l2.ReadCleanReq_misses::.cpu.inst          520                       # number of ReadCleanReq misses
system.l2.ReadCleanReq_misses::total              520                       # number of ReadCleanReq misses
system.l2.ReadCleanReq_miss_latency::.cpu.inst     40197500                       # number of ReadCleanReq miss cycles
[...]
system.cpu.dcache.demand_accesses::.cpu.data      3429111                       # number of demand (read+write) accesses
system.cpu.dcache.demand_accesses::total      3429111                       # number of demand (read+write) accesses
system.cpu.dcache.overall_accesses::.cpu.data      3435928                       # number of overall (read+write) accesses
system.cpu.dcache.overall_accesses::total      3435928                       # number of overall (read+write) accesses
system.cpu.dcache.demand_miss_rate::.cpu.data     0.021980                       # miss rate for demand accesses
system.cpu.dcache.demand_miss_rate::total     0.021980                       # miss rate for demand accesses
system.cpu.dcache.overall_miss_rate::.cpu.data     0.021961                       # miss rate for overall accesses
system.cpu.dcache.overall_miss_rate::total     0.021961                       # miss rate for overall accesses
system.cpu.dcache.demand_avg_miss_latency::.cpu.data 70925.685175                       # average overall miss latency
system.cpu.dcache.demand_avg_miss_latency::total 70925.685175                       # average overall miss latency
system.cpu.dcache.overall_avg_miss_latency::.cpu.data 70845.789562                       # average overall miss latency
system.cpu.dcache.overall_avg_miss_latency::total 70845.789562                       # average overall miss latency
system.cpu.dcache.blocked_cycles::no_mshrs       887694                       # number of cycles access was blocked
system.cpu.dcache.blocked_cycles::no_targets            0                       # number of cycles access was blocked
system.cpu.dcache.blocked::no_mshrs             13234                       # number of cycles access was blocked
system.cpu.dcache.blocked::no_targets               0                       # number of cycles access was blocked
system.cpu.dcache.avg_blocked_cycles::no_mshrs    67.076772                       # average number of cycles each access was blocked
system.cpu.dcache.avg_blocked_cycles::no_targets          nan                       # average number of cycles each access was blocked
system.cpu.dcache.writebacks::.writebacks        37016                       # number of writebacks
system.cpu.dcache.writebacks::total             37016                       # number of writebacks
system.cpu.dcache.demand_mshr_hits::.cpu.data        36021                       # number of demand (read+write) MSHR hits
system.cpu.dcache.demand_mshr_hits::total        36021                       # number of demand (read+write) MSHR hits
system.cpu.dcache.overall_mshr_hits::.cpu.data        36021                       # number of overall MSHR hits
system.cpu.dcache.overall_mshr_hits::total        36021                       # number of overall MSHR hits
system.cpu.dcache.demand_mshr_misses::.cpu.data        39351                       # number of demand (read+write) MSHR misses
system.cpu.dcache.demand_mshr_misses::total        39351                       # number of demand (read+write) MSHR misses
system.cpu.dcache.overall_mshr_misses::.cpu.data        39353                       # number of overall MSHR misses
system.cpu.dcache.overall_mshr_misses::total        39353                       # number of overall MSHR misses
system.cpu.dcache.demand_mshr_miss_latency::.cpu.data   3208729122                       # number of demand (read+write) MSHR miss cycles
system.cpu.dcache.demand_mshr_miss_latency::total   3208729122                       # number of demand (read+write) MSHR miss cycles
system.cpu.dcache.overall_mshr_miss_latency::.cpu.data   3208913622                       # number of overall MSHR miss cycles
system.cpu.dcache.overall_mshr_miss_latency::total   3208913622                       # number of overall MSHR miss cycles
system.cpu.dcache.demand_mshr_miss_rate::.cpu.data     0.011476                       # mshr miss rate for demand accesses
system.cpu.dcache.demand_mshr_miss_rate::total     0.011476                       # mshr miss rate for demand accesses
system.cpu.dcache.overall_mshr_miss_rate::.cpu.data     0.011453                       # mshr miss rate for overall accesses
system.cpu.dcache.overall_mshr_miss_rate::total     0.011453                       # mshr miss rate for overall accesses
system.cpu.dcache.demand_avg_mshr_miss_latency::.cpu.data 81541.234581                       # average overall mshr miss latency
system.cpu.dcache.demand_avg_mshr_miss_latency::total 81541.234581                       # average overall mshr miss latency
system.cpu.dcache.overall_avg_mshr_miss_latency::.cpu.data 81541.778822                       # average overall mshr miss latency
system.cpu.dcache.overall_avg_mshr_miss_latency::total 81541.778822                       # average overall mshr miss latency
system.cpu.dcache.replacements                  38330                       # number of replacements
system.cpu.dcache.ReadReq_hits::.cpu.data      1624688                       # number of ReadReq hits
system.cpu.dcache.ReadReq_hits::total         1624688                       # number of ReadReq hits
system.cpu.dcache.ReadReq_misses::.cpu.data        19267                       # number of ReadReq misses
system.cpu.dcache.ReadReq_misses::total         19267                       # number of ReadReq misses
system.cpu.dcache.ReadReq_miss_latency::.cpu.data   1038639000                       # number of ReadReq miss cycles
system.cpu.dcache.ReadReq_miss_latency::total   1038639000                       # number of ReadReq miss cycles
system.cpu.dcache.ReadReq_accesses::.cpu.data      1643955                       # number of ReadReq accesses(hits+misses)
system.cpu.dcache.ReadReq_accesses::total      1643955                       # number of ReadReq accesses(hits+misses)
system.cpu.dcache.ReadReq_miss_rate::.cpu.data     0.011720                       # miss rate for ReadReq accesses
system.cpu.dcache.ReadReq_miss_rate::total     0.011720                       # miss rate for ReadReq accesses
system.cpu.dcache.ReadReq_avg_miss_latency::.cpu.data 53907.665957                       # average ReadReq miss latency
system.cpu.dcache.ReadReq_avg_miss_latency::total 53907.665957                       # average ReadReq miss latency
system.cpu.dcache.ReadReq_mshr_hits::.cpu.data        13129                       # number of ReadReq MSHR hits
system.cpu.dcache.ReadReq_mshr_hits::total        13129                       # number of ReadReq MSHR hits
system.cpu.dcache.ReadReq_mshr_misses::.cpu.data         6138                       # number of ReadReq MSHR misses
system.cpu.dcache.ReadReq_mshr_misses::total         6138                       # number of ReadReq MSHR misses
system.cpu.dcache.ReadReq_mshr_miss_latency::.cpu.data    413279500                       # number of ReadReq MSHR miss cycles
system.cpu.dcache.ReadReq_mshr_miss_latency::total    413279500                       # number of ReadReq MSHR miss cycles
system.cpu.dcache.ReadReq_mshr_miss_rate::.cpu.data     0.003734                       # mshr miss rate for ReadReq accesses
system.cpu.dcache.ReadReq_mshr_miss_rate::total     0.003734                       # mshr miss rate for ReadReq accesses
system.cpu.dcache.ReadReq_avg_mshr_miss_latency::.cpu.data 67331.296839                       # average ReadReq mshr miss latency
system.cpu.dcache.ReadReq_avg_mshr_miss_latency::total 67331.296839                       # average ReadReq mshr miss latency
system.cpu.dcache.WriteReq_hits::.cpu.data      1729051                       # number of WriteReq hits
system.cpu.dcache.WriteReq_hits::total        1729051                       # number of WriteReq hits
system.cpu.dcache.WriteReq_misses::.cpu.data        56092                       # number of WriteReq misses
system.cpu.dcache.WriteReq_misses::total        56092                       # number of WriteReq misses
system.cpu.dcache.WriteReq_miss_latency::.cpu.data   4306757748                       # number of WriteReq miss cycles
system.cpu.dcache.WriteReq_miss_latency::total   4306757748                       # number of WriteReq miss cycles
system.cpu.dcache.WriteReq_accesses::.cpu.data      1785143                       # number of WriteReq accesses(hits+misses)
system.cpu.dcache.WriteReq_accesses::total      1785143                       # number of WriteReq accesses(hits+misses)
system.cpu.dcache.WriteReq_miss_rate::.cpu.data     0.031422                       # miss rate for WriteReq accesses
system.cpu.dcache.WriteReq_miss_rate::total     0.031422                       # miss rate for WriteReq accesses
system.cpu.dcache.WriteReq_avg_miss_latency::.cpu.data 76780.249376                       # average WriteReq miss latency
system.cpu.dcache.WriteReq_avg_miss_latency::total 76780.249376                       # average WriteReq miss latency
system.cpu.dcache.WriteReq_mshr_hits::.cpu.data        22892                       # number of WriteReq MSHR hits
system.cpu.dcache.WriteReq_mshr_hits::total        22892                       # number of WriteReq MSHR hits
system.cpu.dcache.WriteReq_mshr_misses::.cpu.data        33200                       # number of WriteReq MSHR misses
system.cpu.dcache.WriteReq_mshr_misses::total        33200                       # number of WriteReq MSHR misses
system.cpu.dcache.WriteReq_mshr_miss_latency::.cpu.data   2795048627                       # number of WriteReq MSHR miss cycles
system.cpu.dcache.WriteReq_mshr_miss_latency::total   2795048627                       # number of WriteReq MSHR miss cycles
system.cpu.dcache.WriteReq_mshr_miss_rate::.cpu.data     0.018598                       # mshr miss rate for WriteReq accesses
system.cpu.dcache.WriteReq_mshr_miss_rate::total     0.018598                       # mshr miss rate for WriteReq accesses
system.cpu.dcache.WriteReq_avg_mshr_miss_latency::.cpu.data 84188.211657                       # average WriteReq mshr miss latency
system.cpu.dcache.WriteReq_avg_mshr_miss_latency::total 84188.211657                       # average WriteReq mshr miss latency
system.cpu.dcache.SoftPFReq_hits::.cpu.data         6732                       # number of SoftPFReq hits
system.cpu.dcache.SoftPFReq_hits::total          6732                       # number of SoftPFReq hits
system.cpu.dcache.SoftPFReq_misses::.cpu.data           85                       # number of SoftPFReq misses
system.cpu.dcache.SoftPFReq_misses::total           85                       # number of SoftPFReq misses
system.cpu.dcache.SoftPFReq_accesses::.cpu.data         6817                       # number of SoftPFReq accesses(hits+misses)
system.cpu.dcache.SoftPFReq_accesses::total         6817                       # number of SoftPFReq accesses(hits+misses)
system.cpu.dcache.SoftPFReq_miss_rate::.cpu.data     0.012469                       # miss rate for SoftPFReq accesses
system.cpu.dcache.SoftPFReq_miss_rate::total     0.012469                       # miss rate for SoftPFReq accesses
system.cpu.dcache.SoftPFReq_mshr_misses::.cpu.data            2                       # number of SoftPFReq MSHR misses
system.cpu.dcache.SoftPFReq_mshr_misses::total            2                       # number of SoftPFReq MSHR misses
system.cpu.dcache.SoftPFReq_mshr_miss_latency::.cpu.data       184500                       # number of SoftPFReq MSHR miss cycles
system.cpu.dcache.SoftPFReq_mshr_miss_latency::total       184500                       # number of SoftPFReq MSHR miss cycles
system.cpu.dcache.SoftPFReq_mshr_miss_rate::.cpu.data     0.000293                       # mshr miss rate for SoftPFReq accesses
system.cpu.dcache.SoftPFReq_mshr_miss_rate::total     0.000293                       # mshr miss rate for SoftPFReq accesses
system.cpu.dcache.SoftPFReq_avg_mshr_miss_latency::.cpu.data        92250                       # average SoftPFReq mshr miss latency
system.cpu.dcache.SoftPFReq_avg_mshr_miss_latency::total        92250                       # average SoftPFReq mshr miss latency
system.cpu.dcache.WriteLineReq_misses::.cpu.data           13                       # number of WriteLineReq misses
system.cpu.dcache.WriteLineReq_misses::total           13                       # number of WriteLineReq misses
system.cpu.dcache.WriteLineReq_miss_latency::.cpu.data       413995                       # number of WriteLineReq miss cycles
system.cpu.dcache.WriteLineReq_miss_latency::total       413995                       # number of WriteLineReq miss cycles
system.cpu.dcache.WriteLineReq_accesses::.cpu.data           13                       # number of WriteLineReq accesses(hits+misses)
system.cpu.dcache.WriteLineReq_accesses::total           13                       # number of WriteLineReq accesses(hits+misses)
system.cpu.dcache.WriteLineReq_miss_rate::.cpu.data            1                       # miss rate for WriteLineReq accesses
system.cpu.dcache.WriteLineReq_miss_rate::total            1                       # miss rate for WriteLineReq accesses
system.cpu.dcache.WriteLineReq_avg_miss_latency::.cpu.data 31845.769231                       # average WriteLineReq miss latency
system.cpu.dcache.WriteLineReq_avg_miss_latency::total 31845.769231                       # average WriteLineReq miss latency
system.cpu.dcache.WriteLineReq_mshr_misses::.cpu.data           13                       # number of WriteLineReq MSHR misses
system.cpu.dcache.WriteLineReq_mshr_misses::total           13                       # number of WriteLineReq MSHR misses
system.cpu.dcache.WriteLineReq_mshr_miss_latency::.cpu.data       400995                       # number of WriteLineReq MSHR miss cycles
system.cpu.dcache.WriteLineReq_mshr_miss_latency::total       400995                       # number of WriteLineReq MSHR miss cycles
system.cpu.dcache.WriteLineReq_mshr_miss_rate::.cpu.data            1                       # mshr miss rate for WriteLineReq accesses
system.cpu.dcache.WriteLineReq_mshr_miss_rate::total            1                       # mshr miss rate for WriteLineReq accesses
system.cpu.dcache.WriteLineReq_avg_mshr_miss_latency::.cpu.data 30845.769231                       # average WriteLineReq mshr miss latency
system.cpu.dcache.WriteLineReq_avg_mshr_miss_latency::total 30845.769231                       # average WriteLineReq mshr miss latency
system.cpu.dcache.LoadLockedReq_hits::.cpu.data        12135                       # number of LoadLockedReq hits
system.cpu.dcache.LoadLockedReq_hits::total        12135                       # number of LoadLockedReq hits
system.cpu.dcache.LoadLockedReq_misses::.cpu.data            2                       # number of LoadLockedReq misses
system.cpu.dcache.LoadLockedReq_misses::total            2                       # number of LoadLockedReq misses
system.cpu.dcache.LoadLockedReq_miss_latency::.cpu.data       158500                       # number of LoadLockedReq miss cycles
system.cpu.dcache.LoadLockedReq_miss_latency::total       158500                       # number of LoadLockedReq miss cycles
system.cpu.dcache.LoadLockedReq_accesses::.cpu.data        12137                       # number of LoadLockedReq accesses(hits+misses)
system.cpu.dcache.LoadLockedReq_accesses::total        12137                       # number of LoadLockedReq accesses(hits+misses)
system.cpu.dcache.LoadLockedReq_miss_rate::.cpu.data     0.000165                       # miss rate for LoadLockedReq accesses
system.cpu.dcache.LoadLockedReq_miss_rate::total     0.000165                       # miss rate for LoadLockedReq accesses
system.cpu.dcache.LoadLockedReq_avg_miss_latency::.cpu.data        79250                       # average LoadLockedReq miss latency
system.cpu.dcache.LoadLockedReq_avg_miss_latency::total        79250                       # average LoadLockedReq miss latency
system.cpu.dcache.LoadLockedReq_mshr_hits::.cpu.data            1                       # number of LoadLockedReq MSHR hits
system.cpu.dcache.LoadLockedReq_mshr_hits::total            1                       # number of LoadLockedReq MSHR hits
system.cpu.dcache.LoadLockedReq_mshr_misses::.cpu.data            1                       # number of LoadLockedReq MSHR misses
system.cpu.dcache.LoadLockedReq_mshr_misses::total            1                       # number of LoadLockedReq MSHR misses
system.cpu.dcache.LoadLockedReq_mshr_miss_latency::.cpu.data        85000                       # number of LoadLockedReq MSHR miss cycles
system.cpu.dcache.LoadLockedReq_mshr_miss_latency::total        85000                       # number of LoadLockedReq MSHR miss cycles
system.cpu.dcache.LoadLockedReq_mshr_miss_rate::.cpu.data     0.000082                       # mshr miss rate for LoadLockedReq accesses
system.cpu.dcache.LoadLockedReq_mshr_miss_rate::total     0.000082                       # mshr miss rate for LoadLockedReq accesses
system.cpu.dcache.LoadLockedReq_avg_mshr_miss_latency::.cpu.data        85000                       # average LoadLockedReq mshr miss latency
system.cpu.dcache.LoadLockedReq_avg_mshr_miss_latency::total        85000                       # average LoadLockedReq mshr miss latency
system.cpu.dcache.StoreCondReq_hits::.cpu.data        12120                       # number of StoreCondReq hits
system.cpu.dcache.StoreCondReq_hits::total        12120                       # number of StoreCondReq hits
system.cpu.dcache.StoreCondReq_accesses::.cpu.data        12120                       # number of StoreCondReq accesses(hits+misses)
system.cpu.dcache.StoreCondReq_accesses::total        12120                       # number of StoreCondReq accesses(hits+misses)
system.cpu.dcache.power_state.pwrStateResidencyTicks::UNDEFINED   8555217000                       # Cumulative time (in ticks) in various power states
system.cpu.dcache.tags.tagsinuse          1010.675007                       # Cycle average of tags in use
system.cpu.dcache.tags.total_refs             3424080                       # Total number of references to valid blocks.
system.cpu.dcache.tags.sampled_refs             39354                       # Sample count of references to valid blocks.
system.cpu.dcache.tags.avg_refs             87.007166                       # Average number of references to valid blocks.
system.cpu.dcache.tags.warmup_cycle            176500                       # Cycle when the warmup percentage was hit.
system.cpu.dcache.tags.occ_blocks::.cpu.data  1010.675007                       # Average occupied blocks per requestor
system.cpu.dcache.tags.occ_percent::.cpu.data     0.986987                       # Average percentage of cache occupancy
system.cpu.dcache.tags.occ_percent::total     0.986987                       # Average percentage of cache occupancy
system.cpu.dcache.tags.occ_task_id_blocks::1024         1024                       # Occupied blocks per task id
system.cpu.dcache.tags.age_task_id_blocks_1024::0           45                       # Occupied blocks per task id
system.cpu.dcache.tags.age_task_id_blocks_1024::1          396                       # Occupied blocks per task id
system.cpu.dcache.tags.age_task_id_blocks_1024::2          542                       # Occupied blocks per task id
system.cpu.dcache.tags.age_task_id_blocks_1024::3           41                       # Occupied blocks per task id
system.cpu.dcache.tags.occ_task_id_percent::1024            1                       # Percentage of cache occupancy per task id
system.cpu.dcache.tags.tag_accesses           6959724                       # Number of tag accesses
system.cpu.dcache.tags.data_accesses          6959724                       # Number of data accesses
system.cpu.dcache.tags.power_state.pwrStateResidencyTicks::UNDEFINED   8555217000                       # Cumulative time (in ticks) in various power states
system.cpu.power_state.pwrStateResidencyTicks::ON   8555217000                       # Cumulative time (in ticks) in various power states

---------- End Simulation Statistics   ----------
