
---------- Begin Simulation Statistics ----------
final_tick                                 5734874500                       # Number of ticks from beginning of simulation (restored from checkpoints and never reset)
host_inst_rate                                 138611                       # Simulator instruction rate (inst/s)
host_mem_usage                                 900832                       # Number of bytes of host memory used
host_op_rate                                   138663                       # Simulator op (including micro ops) rate (op/s)
host_seconds                                    72.14                       # Real time elapsed on the host
host_tick_rate                               79491736                       # Simulator tick rate (ticks/s)
sim_freq                                 1000000000000                       # Frequency of simulated ticks
sim_insts                                    10000000                       # Number of instructions simulated
sim_ops                                      10003754                       # Number of ops (including micro ops) simulated
sim_seconds                                  0.005735                       # Number of seconds simulated
sim_ticks                                  5734874500                       # Number of ticks simulated
system.cpu.branchPred.BTBCorrect                    0                       # Number of correct BTB predictions (this stat may not work properly.
system.cpu.branchPred.BTBHitPct             99.955657                       # BTB Hit Percentage
system.cpu.branchPred.BTBHits                 1598194                       # Number of BTB hits
system.cpu.branchPred.BTBLookups              1598903                       # Number of BTB lookups
system.cpu.branchPred.RASInCorrect                  1                       # Number of incorrect RAS predictions.
system.cpu.branchPred.condIncorrect               882                       # Number of conditional branches incorrect
system.cpu.branchPred.condPredicted           1600242                       # Number of conditional branches predicted
system.cpu.branchPred.indirectHits                  0                       # Number of indirect target hits.
system.cpu.branchPred.indirectLookups             141                       # Number of indirect predictor lookups.
system.cpu.branchPred.indirectMisses              141                       # Number of indirect misses.
system.cpu.branchPred.lookups                 1608696                       # Number of BP lookups
system.cpu.branchPred.usedRAS                    2762                       # Number of times the RAS was used to get a target.
system.cpu.branchPredindirectMispredicted           42                       # Number of mispredicted indirect branches.
system.cpu.cc_regfile_reads                   4675851                       # number of cc regfile reads
system.cpu.cc_regfile_writes                  4676136                       # number of cc regfile writes
system.cpu.commit.amos                              0                       # Number of atomic instructions committed
system.cpu.commit.branchMispredicts               684                       # The number of times a branch was mispredicted
system.cpu.commit.branches                    1479051                       # Number of branches committed
system.cpu.commit.bw_lim_events                186459                       # number cycles where commit BW limit reached
system.cpu.commit.commitNonSpecStalls              26                       # The number of times commit has been forced to stall to communicate backwards
system.cpu.commit.commitSquashedInsts          617827                       # The number of squashed insts skipped by commit
system.cpu.commit.committedInsts             10000211                       # Number of instructions committed
system.cpu.commit.committedOps               10003965                       # Number of ops (including micro ops) committed
system.cpu.commit.committed_per_cycle::samples     11359560                       # Number of insts commited each cycle
system.cpu.commit.committed_per_cycle::mean     0.880665                       # Number of insts commited each cycle
system.cpu.commit.committed_per_cycle::stdev     1.865682                       # Number of insts commited each cycle
system.cpu.commit.committed_per_cycle::underflows            0      0.00%      0.00% # Number of insts commited each cycle
system.cpu.commit.committed_per_cycle::0      8353077     73.53%     73.53% # Number of insts commited each cycle
system.cpu.commit.committed_per_cycle::1       968694      8.53%     82.06% # Number of insts commited each cycle
system.cpu.commit.committed_per_cycle::2       405974      3.57%     85.63% # Number of insts commited each cycle
system.cpu.commit.committed_per_cycle::3       403021      3.55%     89.18% # Number of insts commited each cycle
system.cpu.commit.committed_per_cycle::4       308101      2.71%     91.89% # Number of insts commited each cycle
system.cpu.commit.committed_per_cycle::5       166410      1.46%     93.36% # Number of insts commited each cycle
system.cpu.commit.committed_per_cycle::6       516634      4.55%     97.91% # Number of insts commited each cycle
system.cpu.commit.committed_per_cycle::7        51190      0.45%     98.36% # Number of insts commited each cycle
system.cpu.commit.committed_per_cycle::8       186459      1.64%    100.00% # Number of insts commited each cycle
system.cpu.commit.committed_per_cycle::overflows            0      0.00%    100.00% # Number of insts commited each cycle
system.cpu.commit.committed_per_cycle::min_value            0                       # Number of insts commited each cycle
system.cpu.commit.committed_per_cycle::max_value            8                       # Number of insts commited each cycle
system.cpu.commit.committed_per_cycle::total     11359560                       # Number of insts commited each cycle
system.cpu.commit.fp_insts                          0                       # Number of committed floating point instructions.
system.cpu.commit.function_calls                 2417                       # Number of function calls committed.
system.cpu.commit.int_insts                   8532197                       # Number of committed integer instructions.
system.cpu.commit.loads                       2926491                       # Number of loads committed
system.cpu.commit.membars                          16                       # Number of memory barriers committed
system.cpu.commit.op_class_0::No_OpClass            4      0.00%      0.00% # Class of committed instruction
system.cpu.commit.op_class_0::IntAlu          5610049     56.08%     56.08% # Class of committed instruction
system.cpu.commit.op_class_0::IntMult             449      0.00%     56.08% # Class of committed instruction
system.cpu.commit.op_class_0::IntDiv                2      0.00%     56.08% # Class of committed instruction
system.cpu.commit.op_class_0::FloatAdd              0      0.00%     56.08% # Class of committed instruction
system.cpu.commit.op_class_0::FloatCmp              0      0.00%     56.08% # Class of committed instruction
system.cpu.commit.op_class_0::FloatCvt              0      0.00%     56.08% # Class of committed instruction
system.cpu.commit.op_class_0::FloatMult             0      0.00%     56.08% # Class of committed instruction
system.cpu.commit.op_class_0::FloatMultAcc            0      0.00%     56.08% # Class of committed instruction
system.cpu.commit.op_class_0::FloatDiv              0      0.00%     56.08% # Class of committed instruction
system.cpu.commit.op_class_0::FloatMisc             1      0.00%     56.08% # Class of committed instruction
system.cpu.commit.op_class_0::FloatSqrt             0      0.00%     56.08% # Class of committed instruction
system.cpu.commit.op_class_0::SimdAdd              19      0.00%     56.08% # Class of committed instruction
system.cpu.commit.op_class_0::SimdAddAcc            0      0.00%     56.08% # Class of committed instruction
system.cpu.commit.op_class_0::SimdAlu              12      0.00%     56.08% # Class of committed instruction
system.cpu.commit.op_class_0::SimdCmp              16      0.00%     56.08% # Class of committed instruction
system.cpu.commit.op_class_0::SimdCvt               0      0.00%     56.08% # Class of committed instruction
system.cpu.commit.op_class_0::SimdMisc             16      0.00%     56.08% # Class of committed instruction
system.cpu.commit.op_class_0::SimdMult              0      0.00%     56.08% # Class of committed instruction
system.cpu.commit.op_class_0::SimdMultAcc            0      0.00%     56.08% # Class of committed instruction
system.cpu.commit.op_class_0::SimdShift             0      0.00%     56.08% # Class of committed instruction
system.cpu.commit.op_class_0::SimdShiftAcc            0      0.00%     56.08% # Class of committed instruction
system.cpu.commit.op_class_0::SimdDiv               0      0.00%     56.08% # Class of committed instruction
system.cpu.commit.op_class_0::SimdSqrt              0      0.00%     56.08% # Class of committed instruction
system.cpu.commit.op_class_0::SimdFloatAdd            0      0.00%     56.08% # Class of committed instruction
system.cpu.commit.op_class_0::SimdFloatAlu            0      0.00%     56.08% # Class of committed instruction
system.cpu.commit.op_class_0::SimdFloatCmp            0      0.00%     56.08% # Class of committed instruction
system.cpu.commit.op_class_0::SimdFloatCvt            0      0.00%     56.08% # Class of committed instruction
system.cpu.commit.op_class_0::SimdFloatDiv            0      0.00%     56.08% # Class of committed instruction
system.cpu.commit.op_class_0::SimdFloatMisc            0      0.00%     56.08% # Class of committed instruction
system.cpu.commit.op_class_0::SimdFloatMult            0      0.00%     56.08% # Class of committed instruction
system.cpu.commit.op_class_0::SimdFloatMultAcc            0      0.00%     56.08% # Class of committed instruction
system.cpu.commit.op_class_0::SimdFloatSqrt            0      0.00%     56.08% # Class of committed instruction
system.cpu.commit.op_class_0::SimdReduceAdd            0      0.00%     56.08% # Class of committed instruction
system.cpu.commit.op_class_0::SimdReduceAlu            0      0.00%     56.08% # Class of committed instruction
system.cpu.commit.op_class_0::SimdReduceCmp            0      0.00%     56.08% # Class of committed instruction
system.cpu.commit.op_class_0::SimdFloatReduceAdd            0      0.00%     56.08% # Class of committed instruction
system.cpu.commit.op_class_0::SimdFloatReduceCmp            0      0.00%     56.08% # Class of committed instruction
system.cpu.commit.op_class_0::SimdAes               0      0.00%     56.08% # Class of committed instruction
system.cpu.commit.op_class_0::SimdAesMix            0      0.00%     56.08% # Class of committed instruction
system.cpu.commit.op_class_0::SimdSha1Hash            0      0.00%     56.08% # Class of committed instruction
system.cpu.commit.op_class_0::SimdSha1Hash2            0      0.00%     56.08% # Class of committed instruction
system.cpu.commit.op_class_0::SimdSha256Hash            0      0.00%     56.08% # Class of committed instruction
system.cpu.commit.op_class_0::SimdSha256Hash2            0      0.00%     56.08% # Class of committed instruction
system.cpu.commit.op_class_0::SimdShaSigma2            0      0.00%     56.08% # Class of committed instruction
system.cpu.commit.op_class_0::SimdShaSigma3            0      0.00%     56.08% # Class of committed instruction
system.cpu.commit.op_class_0::SimdPredAlu            0      0.00%     56.08% # Class of committed instruction
system.cpu.commit.op_class_0::MemRead         2926491     29.25%     85.34% # Class of committed instruction
system.cpu.commit.op_class_0::MemWrite        1466906     14.66%    100.00% # Class of committed instruction
system.cpu.commit.op_class_0::FloatMemRead            0      0.00%    100.00% # Class of committed instruction
system.cpu.commit.op_class_0::FloatMemWrite            0      0.00%    100.00% # Class of committed instruction
system.cpu.commit.op_class_0::IprAccess             0      0.00%    100.00% # Class of committed instruction
system.cpu.commit.op_class_0::InstPrefetch            0      0.00%    100.00% # Class of committed instruction
system.cpu.commit.op_class_0::total          10003965                       # Class of committed instruction
system.cpu.commit.refs                        4393397                       # Number of memory references committed
system.cpu.commit.swp_count                         0                       # Number of s/w prefetches committed
system.cpu.commit.vec_insts                       248                       # Number of committed Vector instructions.
system.cpu.committedInsts                    10000000                       # Number of Instructions Simulated
system.cpu.committedOps                      10003754                       # Number of Ops (including micro ops) Simulated
system.cpu.cpi                               1.146975                       # CPI: Cycles Per Instruction
system.cpu.cpi_total                         1.146975                       # CPI: Total CPI of All Threads
system.cpu.decode.BlockedCycles               9601659                       # Number of cycles decode is blocked
system.cpu.decode.BranchMispred                   204                       # Number of times decode detected a branch misprediction
system.cpu.decode.BranchResolved              1563761                       # Number of times decode resolved a branch
system.cpu.decode.DecodedInsts               10669342                       # Number of instructions handled by decode
system.cpu.decode.IdleCycles                   419179                       # Number of cycles decode is idle
system.cpu.decode.RunCycles                    824262                       # Number of cycles decode is running
system.cpu.decode.SquashCycles                   5806                       # Number of cycles decode is squashing
system.cpu.decode.SquashedInsts                   684                       # Number of squashed instructions handled by decode
system.cpu.decode.UnblockCycles                588424                       # Number of cycles decode is unblocking
system.cpu.dtb.accesses                             0                       # DTB accesses
system.cpu.dtb.align_faults                         0                       # Number of TLB faults due to alignment restrictions
system.cpu.dtb.domain_faults                        0                       # Number of TLB faults due to domain restrictions
system.cpu.dtb.flush_entries                        0                       # Number of entries that have been flushed from TLB
system.cpu.dtb.flush_tlb                            0                       # Number of times complete TLB was flushed
system.cpu.dtb.flush_tlb_asid                       0                       # Number of times TLB was flushed by ASID
system.cpu.dtb.flush_tlb_mva                        0                       # Number of times TLB was flushed by MVA
system.cpu.dtb.flush_tlb_mva_asid                   0                       # Number of times TLB was flushed by MVA & ASID
system.cpu.dtb.hits                                 0                       # DTB hits
system.cpu.dtb.inst_accesses                        0                       # ITB inst accesses
system.cpu.dtb.inst_hits                            0                       # ITB inst hits
system.cpu.dtb.inst_misses                          0                       # ITB inst misses
system.cpu.dtb.misses                               0                       # DTB misses
system.cpu.dtb.perms_faults                         0                       # Number of TLB faults due to permissions restrictions
system.cpu.dtb.prefetch_faults                      0                       # Number of TLB faults due to prefetch
system.cpu.dtb.read_accesses                        0                       # DTB read accesses
system.cpu.dtb.read_hits                            0                       # DTB read hits
system.cpu.dtb.read_misses                          0                       # DTB read misses
system.cpu.dtb.stage2_mmu.stage2_tlb.accesses            0                       # DTB accesses
system.cpu.dtb.stage2_mmu.stage2_tlb.align_faults            0                       # Number of TLB faults due to alignment restrictions
system.cpu.dtb.stage2_mmu.stage2_tlb.domain_faults            0                       # Number of TLB faults due to domain restrictions
system.cpu.dtb.stage2_mmu.stage2_tlb.flush_entries            0                       # Number of entries that have been flushed from TLB
system.cpu.dtb.stage2_mmu.stage2_tlb.flush_tlb            0                       # Number of times complete TLB was flushed
system.cpu.dtb.stage2_mmu.stage2_tlb.flush_tlb_asid            0                       # Number of times TLB was flushed by ASID
system.cpu.dtb.stage2_mmu.stage2_tlb.flush_tlb_mva            0                       # Number of times TLB was flushed by MVA
system.cpu.dtb.stage2_mmu.stage2_tlb.flush_tlb_mva_asid            0                       # Number of times TLB was flushed by MVA & ASID
system.cpu.dtb.stage2_mmu.stage2_tlb.hits            0                       # DTB hits
system.cpu.dtb.stage2_mmu.stage2_tlb.inst_accesses            0                       # ITB inst accesses
system.cpu.dtb.stage2_mmu.stage2_tlb.inst_hits            0                       # ITB inst hits
system.cpu.dtb.stage2_mmu.stage2_tlb.inst_misses            0                       # ITB inst misses
system.cpu.dtb.stage2_mmu.stage2_tlb.misses            0                       # DTB misses
system.cpu.dtb.stage2_mmu.stage2_tlb.perms_faults            0                       # Number of TLB faults due to permissions restrictions
system.cpu.dtb.stage2_mmu.stage2_tlb.prefetch_faults            0                       # Number of TLB faults due to prefetch
system.cpu.dtb.stage2_mmu.stage2_tlb.read_accesses            0                       # DTB read accesses
system.cpu.dtb.stage2_mmu.stage2_tlb.read_hits            0                       # DTB read hits
system.cpu.dtb.stage2_mmu.stage2_tlb.read_misses            0                       # DTB read misses
system.cpu.dtb.stage2_mmu.stage2_tlb.walker.walkRequestOrigin_Requested::Data            0                       # Table walker requests started/completed, data/inst
system.cpu.dtb.stage2_mmu.stage2_tlb.walker.walkRequestOrigin_Requested::Inst            0                       # Table walker requests started/completed, data/inst
system.cpu.dtb.stage2_mmu.stage2_tlb.walker.walkRequestOrigin_Requested::total            0                       # Table walker requests started/completed, data/inst
system.cpu.dtb.stage2_mmu.stage2_tlb.walker.walkRequestOrigin_Completed::Data            0                       # Table walker requests started/completed, data/inst
system.cpu.dtb.stage2_mmu.stage2_tlb.walker.walkRequestOrigin_Completed::Inst            0                       # Table walker requests started/completed, data/inst
system.cpu.dtb.stage2_mmu.stage2_tlb.walker.walkRequestOrigin_Completed::total            0                       # Table walker requests started/completed, data/inst
system.cpu.dtb.stage2_mmu.stage2_tlb.walker.walkRequestOrigin::total            0                       # Table walker requests started/completed, data/inst
system.cpu.dtb.stage2_mmu.stage2_tlb.walker.walks            0                       # Table walker walks requested
system.cpu.dtb.stage2_mmu.stage2_tlb.write_accesses            0                       # DTB write accesses
system.cpu.dtb.stage2_mmu.stage2_tlb.write_hits            0                       # DTB write hits
system.cpu.dtb.stage2_mmu.stage2_tlb.write_misses            0                       # DTB write misses
system.cpu.dtb.walker.walkRequestOrigin_Requested::Data            0                       # Table walker requests started/completed, data/inst
system.cpu.dtb.walker.walkRequestOrigin_Requested::Inst            0                       # Table walker requests started/completed, data/inst
system.cpu.dtb.walker.walkRequestOrigin_Requested::total            0                       # Table walker requests started/completed, data/inst
system.cpu.dtb.walker.walkRequestOrigin_Completed::Data            0                       # Table walker requests started/completed, data/inst
system.cpu.dtb.walker.walkRequestOrigin_Completed::Inst            0                       # Table walker requests started/completed, data/inst
system.cpu.dtb.walker.walkRequestOrigin_Completed::total            0                       # Table walker requests started/completed, data/inst
system.cpu.dtb.walker.walkRequestOrigin::total            0                       # Table walker requests started/completed, data/inst
system.cpu.dtb.walker.walks                         0                       # Table walker walks requested
system.cpu.dtb.write_accesses                       0                       # DTB write accesses
system.cpu.dtb.write_hits                           0                       # DTB write hits
system.cpu.dtb.write_misses                         0                       # DTB write misses
system.cpu.fetch.Branches                     1608696                       # Number of branches that fetch encountered
system.cpu.fetch.CacheLines                    689326                       # Number of cache lines fetched
system.cpu.fetch.Cycles                      10734536                       # Number of cycles fetch has run and was not squashing or blocked
system.cpu.fetch.IcacheSquashes                   403                       # Number of outstanding Icache misses that were squashed
system.cpu.fetch.Insts                       10908333                       # Number of instructions fetch has processed
system.cpu.fetch.SquashCycles                   12008                       # Number of cycles fetch has spent squashing
system.cpu.fetch.branchRate                  0.140256                       # Number of branch fetches per cycle
system.cpu.fetch.icacheStallCycles             698790                       # Number of cycles fetch is stalled on an Icache miss
system.cpu.fetch.predictedBranches            1600956                       # Number of branches that fetch has predicted taken
system.cpu.fetch.rate                        0.951052                       # Number of inst fetches per cycle
system.cpu.fetch.rateDist::samples           11439330                       # Number of instructions fetched each cycle (Total)
system.cpu.fetch.rateDist::mean              0.954074                       # Number of instructions fetched each cycle (Total)
system.cpu.fetch.rateDist::stdev             2.100525                       # Number of instructions fetched each cycle (Total)
system.cpu.fetch.rateDist::underflows               0      0.00%      0.00% # Number of instructions fetched each cycle (Total)
system.cpu.fetch.rateDist::0                  9290892     81.22%     81.22% # Number of instructions fetched each cycle (Total)
system.cpu.fetch.rateDist::1                    59460      0.52%     81.74% # Number of instructions fetched each cycle (Total)
system.cpu.fetch.rateDist::2                    88981      0.78%     82.52% # Number of instructions fetched each cycle (Total)
system.cpu.fetch.rateDist::3                    61725      0.54%     83.06% # Number of instructions fetched each cycle (Total)
system.cpu.fetch.rateDist::4                   815726      7.13%     90.19% # Number of instructions fetched each cycle (Total)
system.cpu.fetch.rateDist::5                    11854      0.10%     90.29% # Number of instructions fetched each cycle (Total)
system.cpu.fetch.rateDist::6                   613641      5.36%     95.65% # Number of instructions fetched each cycle (Total)
system.cpu.fetch.rateDist::7                   489053      4.28%     99.93% # Number of instructions fetched each cycle (Total)
system.cpu.fetch.rateDist::8                     7998      0.07%    100.00% # Number of instructions fetched each cycle (Total)
system.cpu.fetch.rateDist::overflows                0      0.00%    100.00% # Number of instructions fetched each cycle (Total)
system.cpu.fetch.rateDist::min_value                0                       # Number of instructions fetched each cycle (Total)
system.cpu.fetch.rateDist::max_value                8                       # Number of instructions fetched each cycle (Total)
system.cpu.fetch.rateDist::total             11439330                       # Number of instructions fetched each cycle (Total)
system.cpu.icache.prefetcher.num_hwpf_issued          690                       # number of hwpf issued
system.cpu.icache.prefetcher.pfBufferHit            6                       # number of redundant prefetches already in prefetch queue
system.cpu.icache.prefetcher.pfIdentified          697                       # number of prefetch candidates identified
system.cpu.icache.prefetcher.pfInCache              0                       # number of redundant prefetches already in cache/mshr dropped
system.cpu.icache.prefetcher.pfRemovedFull            0                       # number of prefetches dropped due to prefetch queue size
system.cpu.icache.prefetcher.pfSpanPage           635                       # number of prefetches that crossed the page
system.cpu.idleCycles                           30420                       # Total number of cycles that the CPU has spent unscheduled due to idling
system.cpu.iew.branchMispredicts                  756                       # Number of branch mispredicts detected at execute
system.cpu.iew.exec_branches                  1566843                       # Number of branches executed
system.cpu.iew.exec_nop                           238                       # number of nop insts executed
system.cpu.iew.exec_rate                     0.925208                       # Inst execution rate
system.cpu.iew.exec_refs                      4649828                       # number of memory reference insts executed
system.cpu.iew.exec_stores                    1554076                       # Number of stores executed
system.cpu.iew.exec_swp                             0                       # number of swp insts executed
system.cpu.iew.iewBlockCycles                   74383                       # Number of cycles IEW is blocking
system.cpu.iew.iewDispLoadInsts               3096190                       # Number of dispatched load instructions
system.cpu.iew.iewDispNonSpecInsts                 34                       # Number of dispatched non-speculative instructions
system.cpu.iew.iewDispSquashedInsts               126                       # Number of squashed instructions skipped by dispatch
system.cpu.iew.iewDispStoreInsts              1554738                       # Number of dispatched store instructions
system.cpu.iew.iewDispatchedInsts            10616395                       # Number of instructions dispatched to IQ
system.cpu.iew.iewExecLoadInsts               3095752                       # Number of load instructions executed
system.cpu.iew.iewExecSquashedInsts               989                       # Number of squashed instructions skipped in execute
system.cpu.iew.iewExecutedInsts              10611905                       # Number of executed instructions
system.cpu.iew.iewIQFullEvents                      6                       # Number of times the IQ has become full, causing a stall
system.cpu.iew.iewIdleCycles                        0                       # Number of cycles IEW is idle
system.cpu.iew.iewLSQFullEvents                669618                       # Number of times the LSQ has become full, causing a stall
system.cpu.iew.iewSquashCycles                   5806                       # Number of cycles IEW is squashing
system.cpu.iew.iewUnblockCycles                675769                       # Number of cycles IEW is unblocking
system.cpu.iew.lsq.thread0.blockedLoads             0                       # Number of blocked loads due to partial load-store forwarding
system.cpu.iew.lsq.thread0.cacheBlocked           149                       # Number of times an access to memory failed due to the cache being blocked
system.cpu.iew.lsq.thread0.forwLoads              728                       # Number of loads that had data forwarded from stores
system.cpu.iew.lsq.thread0.ignoredResponses            2                       # Number of memory responses ignored because the instruction is squashed
system.cpu.iew.lsq.thread0.invAddrLoads             0                       # Number of loads ignored due to an invalid address
system.cpu.iew.lsq.thread0.invAddrSwpfs             0                       # Number of software prefetches ignored due to an invalid address
system.cpu.iew.lsq.thread0.memOrderViolation           14                       # Number of memory ordering violations
system.cpu.iew.lsq.thread0.rescheduledLoads           25                       # Number of loads that were rescheduled
system.cpu.iew.lsq.thread0.squashedLoads       169691                       # Number of loads squashed
system.cpu.iew.lsq.thread0.squashedStores        87828                       # Number of stores squashed
system.cpu.iew.memOrderViolationEvents             14                       # Number of memory order violations
system.cpu.iew.predictedNotTakenIncorrect          571                       # Number of branches that were predicted not taken incorrectly
system.cpu.iew.predictedTakenIncorrect            185                       # Number of branches that were predicted taken incorrectly
system.cpu.iew.wb_consumers                  11392811                       # num instructions consuming a value
system.cpu.iew.wb_count                      10524478                       # cumulative count of insts written-back
system.cpu.iew.wb_fanout                     0.577542                       # average fanout of values written-back
system.cpu.iew.wb_producers                   6579830                       # num instructions producing a value
system.cpu.iew.wb_rate                       0.917586                       # insts written-back per cycle
system.cpu.iew.wb_sent                       10611478                       # cumulative count of insts sent to commit
system.cpu.int_regfile_reads                 13706310                       # number of integer regfile reads
system.cpu.int_regfile_writes                 7493046                       # number of integer regfile writes
system.cpu.ipc                               0.871859                       # IPC: Instructions Per Cycle
system.cpu.ipc_total                         0.871859                       # IPC: Total IPC of All Threads
system.cpu.iq.FU_type_0::No_OpClass                 5      0.00%      0.00% # Type of FU issued
system.cpu.iq.FU_type_0::IntAlu               5962088     56.18%     56.18% # Type of FU issued
system.cpu.iq.FU_type_0::IntMult                  508      0.00%     56.18% # Type of FU issued
system.cpu.iq.FU_type_0::IntDiv                     2      0.00%     56.18% # Type of FU issued
system.cpu.iq.FU_type_0::FloatAdd                   0      0.00%     56.18% # Type of FU issued
system.cpu.iq.FU_type_0::FloatCmp                   0      0.00%     56.18% # Type of FU issued
system.cpu.iq.FU_type_0::FloatCvt                   0      0.00%     56.18% # Type of FU issued
system.cpu.iq.FU_type_0::FloatMult                  0      0.00%     56.18% # Type of FU issued
system.cpu.iq.FU_type_0::FloatMultAcc               0      0.00%     56.18% # Type of FU issued
system.cpu.iq.FU_type_0::FloatDiv                   0      0.00%     56.18% # Type of FU issued
system.cpu.iq.FU_type_0::FloatMisc                  1      0.00%     56.18% # Type of FU issued
system.cpu.iq.FU_type_0::FloatSqrt                  0      0.00%     56.18% # Type of FU issued
system.cpu.iq.FU_type_0::SimdAdd                   25      0.00%     56.18% # Type of FU issued
system.cpu.iq.FU_type_0::SimdAddAcc                 0      0.00%     56.18% # Type of FU issued
system.cpu.iq.FU_type_0::SimdAlu                   16      0.00%     56.18% # Type of FU issued
system.cpu.iq.FU_type_0::SimdCmp                   20      0.00%     56.18% # Type of FU issued
system.cpu.iq.FU_type_0::SimdCvt                    0      0.00%     56.18% # Type of FU issued
system.cpu.iq.FU_type_0::SimdMisc                  18      0.00%     56.18% # Type of FU issued
system.cpu.iq.FU_type_0::SimdMult                   0      0.00%     56.18% # Type of FU issued
system.cpu.iq.FU_type_0::SimdMultAcc                0      0.00%     56.18% # Type of FU issued
system.cpu.iq.FU_type_0::SimdShift                  0      0.00%     56.18% # Type of FU issued
system.cpu.iq.FU_type_0::SimdShiftAcc               0      0.00%     56.18% # Type of FU issued
system.cpu.iq.FU_type_0::SimdDiv                    0      0.00%     56.18% # Type of FU issued
system.cpu.iq.FU_type_0::SimdSqrt                   0      0.00%     56.18% # Type of FU issued
system.cpu.iq.FU_type_0::SimdFloatAdd               0      0.00%     56.18% # Type of FU issued
system.cpu.iq.FU_type_0::SimdFloatAlu               0      0.00%     56.18% # Type of FU issued
system.cpu.iq.FU_type_0::SimdFloatCmp               0      0.00%     56.18% # Type of FU issued
system.cpu.iq.FU_type_0::SimdFloatCvt               0      0.00%     56.18% # Type of FU issued
system.cpu.iq.FU_type_0::SimdFloatDiv               0      0.00%     56.18% # Type of FU issued
system.cpu.iq.FU_type_0::SimdFloatMisc              0      0.00%     56.18% # Type of FU issued
system.cpu.iq.FU_type_0::SimdFloatMult              0      0.00%     56.18% # Type of FU issued
system.cpu.iq.FU_type_0::SimdFloatMultAcc            0      0.00%     56.18% # Type of FU issued
system.cpu.iq.FU_type_0::SimdFloatSqrt              0      0.00%     56.18% # Type of FU issued
system.cpu.iq.FU_type_0::SimdReduceAdd              0      0.00%     56.18% # Type of FU issued
system.cpu.iq.FU_type_0::SimdReduceAlu              0      0.00%     56.18% # Type of FU issued
system.cpu.iq.FU_type_0::SimdReduceCmp              0      0.00%     56.18% # Type of FU issued
system.cpu.iq.FU_type_0::SimdFloatReduceAdd            0      0.00%     56.18% # Type of FU issued
system.cpu.iq.FU_type_0::SimdFloatReduceCmp            0      0.00%     56.18% # Type of FU issued
system.cpu.iq.FU_type_0::SimdAes                    0      0.00%     56.18% # Type of FU issued
system.cpu.iq.FU_type_0::SimdAesMix                 0      0.00%     56.18% # Type of FU issued
system.cpu.iq.FU_type_0::SimdSha1Hash               0      0.00%     56.18% # Type of FU issued
system.cpu.iq.FU_type_0::SimdSha1Hash2              0      0.00%     56.18% # Type of FU issued
system.cpu.iq.FU_type_0::SimdSha256Hash             0      0.00%     56.18% # Type of FU issued
system.cpu.iq.FU_type_0::SimdSha256Hash2            0      0.00%     56.18% # Type of FU issued
system.cpu.iq.FU_type_0::SimdShaSigma2              0      0.00%     56.18% # Type of FU issued
system.cpu.iq.FU_type_0::SimdShaSigma3              0      0.00%     56.18% # Type of FU issued
system.cpu.iq.FU_type_0::SimdPredAlu                0      0.00%     56.18% # Type of FU issued
system.cpu.iq.FU_type_0::MemRead              3095918     29.17%     85.35% # Type of FU issued
system.cpu.iq.FU_type_0::MemWrite             1554297     14.65%    100.00% # Type of FU issued
system.cpu.iq.FU_type_0::FloatMemRead               0      0.00%    100.00% # Type of FU issued
system.cpu.iq.FU_type_0::FloatMemWrite              0      0.00%    100.00% # Type of FU issued
system.cpu.iq.FU_type_0::IprAccess                  0      0.00%    100.00% # Type of FU issued
system.cpu.iq.FU_type_0::InstPrefetch               0      0.00%    100.00% # Type of FU issued
system.cpu.iq.FU_type_0::total               10612898                       # Type of FU issued
system.cpu.iq.fp_alu_accesses                       0                       # Number of floating point alu accesses
system.cpu.iq.fp_inst_queue_reads                   0                       # Number of floating instruction queue reads
system.cpu.iq.fp_inst_queue_wakeup_accesses            0                       # Number of floating instruction queue wakeup accesses
system.cpu.iq.fp_inst_queue_writes                  0                       # Number of floating instruction queue writes
system.cpu.iq.fu_busy_cnt                       48346                       # FU busy when requested
system.cpu.iq.fu_busy_rate                   0.004555                       # FU busy rate (busy events/executed inst)
system.cpu.iq.fu_full::No_OpClass                   0      0.00%      0.00% # attempts to use FU when none available
system.cpu.iq.fu_full::IntAlu                     194      0.40%      0.40% # attempts to use FU when none available
system.cpu.iq.fu_full::IntMult                      0      0.00%      0.40% # attempts to use FU when none available
system.cpu.iq.fu_full::IntDiv                       0      0.00%      0.40% # attempts to use FU when none available
system.cpu.iq.fu_full::FloatAdd                     0      0.00%      0.40% # attempts to use FU when none available
system.cpu.iq.fu_full::FloatCmp                     0      0.00%      0.40% # attempts to use FU when none available
system.cpu.iq.fu_full::FloatCvt                     0      0.00%      0.40% # attempts to use FU when none available
system.cpu.iq.fu_full::FloatMult                    0      0.00%      0.40% # attempts to use FU when none available
system.cpu.iq.fu_full::FloatMultAcc                 0      0.00%      0.40% # attempts to use FU when none available
system.cpu.iq.fu_full::FloatDiv                     0      0.00%      0.40% # attempts to use FU when none available
system.cpu.iq.fu_full::FloatMisc                    0      0.00%      0.40% # attempts to use FU when none available
system.cpu.iq.fu_full::FloatSqrt                    0      0.00%      0.40% # attempts to use FU when none available
system.cpu.iq.fu_full::SimdAdd                      0      0.00%      0.40% # attempts to use FU when none available
system.cpu.iq.fu_full::SimdAddAcc                   0      0.00%      0.40% # attempts to use FU when none available
system.cpu.iq.fu_full::SimdAlu                      1      0.00%      0.40% # attempts to use FU when none available
system.cpu.iq.fu_full::SimdCmp                      2      0.00%      0.41% # attempts to use FU when none available
system.cpu.iq.fu_full::SimdCvt                      0      0.00%      0.41% # attempts to use FU when none available
system.cpu.iq.fu_full::SimdMisc                     0      0.00%      0.41% # attempts to use FU when none available
system.cpu.iq.fu_full::SimdMult                     0      0.00%      0.41% # attempts to use FU when none available
system.cpu.iq.fu_full::SimdMultAcc                  0      0.00%      0.41% # attempts to use FU when none available
system.cpu.iq.fu_full::SimdShift                    0      0.00%      0.41% # attempts to use FU when none available
system.cpu.iq.fu_full::SimdShiftAcc                 0      0.00%      0.41% # attempts to use FU when none available
system.cpu.iq.fu_full::SimdDiv                      0      0.00%      0.41% # attempts to use FU when none available
system.cpu.iq.fu_full::SimdSqrt                     0      0.00%      0.41% # attempts to use FU when none available
system.cpu.iq.fu_full::SimdFloatAdd                 0      0.00%      0.41% # attempts to use FU when none available
system.cpu.iq.fu_full::SimdFloatAlu                 0      0.00%      0.41% # attempts to use FU when none available
system.cpu.iq.fu_full::SimdFloatCmp                 0      0.00%      0.41% # attempts to use FU when none available
system.cpu.iq.fu_full::SimdFloatCvt                 0      0.00%      0.41% # attempts to use FU when none available
system.cpu.iq.fu_full::SimdFloatDiv                 0      0.00%      0.41% # attempts to use FU when none available
system.cpu.iq.fu_full::SimdFloatMisc                0      0.00%      0.41% # attempts to use FU when none available
system.cpu.iq.fu_full::SimdFloatMult                0      0.00%      0.41% # attempts to use FU when none available
system.cpu.iq.fu_full::SimdFloatMultAcc             0      0.00%      0.41% # attempts to use FU when none available
system.cpu.iq.fu_full::SimdFloatSqrt                0      0.00%      0.41% # attempts to use FU when none available
system.cpu.iq.fu_full::SimdReduceAdd                0      0.00%      0.41% # attempts to use FU when none available
system.cpu.iq.fu_full::SimdReduceAlu                0      0.00%      0.41% # attempts to use FU when none available
system.cpu.iq.fu_full::SimdReduceCmp                0      0.00%      0.41% # attempts to use FU when none available
system.cpu.iq.fu_full::SimdFloatReduceAdd            0      0.00%      0.41% # attempts to use FU when none available
system.cpu.iq.fu_full::SimdFloatReduceCmp            0      0.00%      0.41% # attempts to use FU when none available
system.cpu.iq.fu_full::SimdAes                      0      0.00%      0.41% # attempts to use FU when none available
system.cpu.iq.fu_full::SimdAesMix                   0      0.00%      0.41% # attempts to use FU when none available
system.cpu.iq.fu_full::SimdSha1Hash                 0      0.00%      0.41% # attempts to use FU when none available
system.cpu.iq.fu_full::SimdSha1Hash2                0      0.00%      0.41% # attempts to use FU when none available
system.cpu.iq.fu_full::SimdSha256Hash               0      0.00%      0.41% # attempts to use FU when none available
system.cpu.iq.fu_full::SimdSha256Hash2              0      0.00%      0.41% # attempts to use FU when none available
system.cpu.iq.fu_full::SimdShaSigma2                0      0.00%      0.41% # attempts to use FU when none available
system.cpu.iq.fu_full::SimdShaSigma3                0      0.00%      0.41% # attempts to use FU when none available
system.cpu.iq.fu_full::SimdPredAlu                  0      0.00%      0.41% # attempts to use FU when none available
system.cpu.iq.fu_full::MemRead                  48056     99.40%     99.81% # attempts to use FU when none available
system.cpu.iq.fu_full::MemWrite                    93      0.19%    100.00% # attempts to use FU when none available
system.cpu.iq.fu_full::FloatMemRead                 0      0.00%    100.00% # attempts to use FU when none available
system.cpu.iq.fu_full::FloatMemWrite                0      0.00%    100.00% # attempts to use FU when none available
system.cpu.iq.fu_full::IprAccess                    0      0.00%    100.00% # attempts to use FU when none available
system.cpu.iq.fu_full::InstPrefetch                 0      0.00%    100.00% # attempts to use FU when none available
system.cpu.iq.int_alu_accesses               10660802                       # Number of integer alu accesses
system.cpu.iq.int_inst_queue_reads           32712674                       # Number of integer instruction queue reads
system.cpu.iq.int_inst_queue_wakeup_accesses     10524148                       # Number of integer instruction queue wakeup accesses
system.cpu.iq.int_inst_queue_writes          11227671                       # Number of integer instruction queue writes
system.cpu.iq.iqInstsAdded                   10616123                       # Number of instructions added to the IQ (excludes non-spec)
system.cpu.iq.iqInstsIssued                  10612898                       # Number of instructions issued
system.cpu.iq.iqNonSpecInstsAdded                  34                       # Number of non-speculative instructions added to the IQ
system.cpu.iq.iqSquashedInstsExamined          612371                       # Number of squashed instructions iterated over during squash; mainly for profiling
system.cpu.iq.iqSquashedInstsIssued               129                       # Number of squashed instructions issued
system.cpu.iq.iqSquashedNonSpecRemoved              8                       # Number of squashed non-spec instructions that were removed
system.cpu.iq.iqSquashedOperandsExamined       200929                       # Number of squashed operands that are examined and possibly removed from graph
system.cpu.iq.issued_per_cycle::samples      11439330                       # Number of insts issued each cycle
system.cpu.iq.issued_per_cycle::mean         0.927755                       # Number of insts issued each cycle
system.cpu.iq.issued_per_cycle::stdev        1.783480                       # Number of insts issued each cycle
system.cpu.iq.issued_per_cycle::underflows            0      0.00%      0.00% # Number of insts issued each cycle
system.cpu.iq.issued_per_cycle::0             8241424     72.04%     72.04% # Number of insts issued each cycle
system.cpu.iq.issued_per_cycle::1              728492      6.37%     78.41% # Number of insts issued each cycle
system.cpu.iq.issued_per_cycle::2              536857      4.69%     83.11% # Number of insts issued each cycle
system.cpu.iq.issued_per_cycle::3              439347      3.84%     86.95% # Number of insts issued each cycle
system.cpu.iq.issued_per_cycle::4              590369      5.16%     92.11% # Number of insts issued each cycle
system.cpu.iq.issued_per_cycle::5              555002      4.85%     96.96% # Number of insts issued each cycle
system.cpu.iq.issued_per_cycle::6              108949      0.95%     97.91% # Number of insts issued each cycle
system.cpu.iq.issued_per_cycle::7              208649      1.82%     99.74% # Number of insts issued each cycle
system.cpu.iq.issued_per_cycle::8               30241      0.26%    100.00% # Number of insts issued each cycle
system.cpu.iq.issued_per_cycle::overflows            0      0.00%    100.00% # Number of insts issued each cycle
system.cpu.iq.issued_per_cycle::min_value            0                       # Number of insts issued each cycle
system.cpu.iq.issued_per_cycle::max_value            8                       # Number of insts issued each cycle
system.cpu.iq.issued_per_cycle::total        11439330                       # Number of insts issued each cycle
system.cpu.iq.rate                           0.925295                       # Inst issue rate
system.cpu.iq.vec_alu_accesses                    437                       # Number of vector alu accesses
system.cpu.iq.vec_inst_queue_reads                923                       # Number of vector instruction queue reads
system.cpu.iq.vec_inst_queue_wakeup_accesses          330                       # Number of vector instruction queue wakeup accesses
system.cpu.iq.vec_inst_queue_writes               870                       # Number of vector instruction queue writes
system.cpu.itb.accesses                             0                       # DTB accesses
system.cpu.itb.align_faults                         0                       # Number of TLB faults due to alignment restrictions
system.cpu.itb.domain_faults                        0                       # Number of TLB faults due to domain restrictions
system.cpu.itb.flush_entries                        0                       # Number of entries that have been flushed from TLB
system.cpu.itb.flush_tlb                            0                       # Number of times complete TLB was flushed
system.cpu.itb.flush_tlb_asid                       0                       # Number of times TLB was flushed by ASID
system.cpu.itb.flush_tlb_mva                        0                       # Number of times TLB was flushed by MVA
system.cpu.itb.flush_tlb_mva_asid                   0                       # Number of times TLB was flushed by MVA & ASID
system.cpu.itb.hits                                 0                       # DTB hits
system.cpu.itb.inst_accesses                        0                       # ITB inst accesses
system.cpu.itb.inst_hits                            0                       # ITB inst hits
system.cpu.itb.inst_misses                          0                       # ITB inst misses
system.cpu.itb.misses                               0                       # DTB misses
system.cpu.itb.perms_faults                         0                       # Number of TLB faults due to permissions restrictions
system.cpu.itb.prefetch_faults                      0                       # Number of TLB faults due to prefetch
system.cpu.itb.read_accesses                        0                       # DTB read accesses
system.cpu.itb.read_hits                            0                       # DTB read hits
system.cpu.itb.read_misses                          0                       # DTB read misses
system.cpu.itb.stage2_mmu.stage2_tlb.accesses            0                       # DTB accesses
system.cpu.itb.stage2_mmu.stage2_tlb.align_faults            0                       # Number of TLB faults due to alignment restrictions
system.cpu.itb.stage2_mmu.stage2_tlb.domain_faults            0                       # Number of TLB faults due to domain restrictions
system.cpu.itb.stage2_mmu.stage2_tlb.flush_entries            0                       # Number of entries that have been flushed from TLB
system.cpu.itb.stage2_mmu.stage2_tlb.flush_tlb            0                       # Number of times complete TLB was flushed
system.cpu.itb.stage2_mmu.stage2_tlb.flush_tlb_asid            0                       # Number of times TLB was flushed by ASID
system.cpu.itb.stage2_mmu.stage2_tlb.flush_tlb_mva            0                       # Number of times TLB was flushed by MVA
system.cpu.itb.stage2_mmu.stage2_tlb.flush_tlb_mva_asid            0                       # Number of times TLB was flushed by MVA & ASID
system.cpu.itb.stage2_mmu.stage2_tlb.hits            0                       # DTB hits
system.cpu.itb.stage2_mmu.stage2_tlb.inst_accesses            0                       # ITB inst accesses
system.cpu.itb.stage2_mmu.stage2_tlb.inst_hits            0                       # ITB inst hits
system.cpu.itb.stage2_mmu.stage2_tlb.inst_misses            0                       # ITB inst misses
system.cpu.itb.stage2_mmu.stage2_tlb.misses            0                       # DTB misses
system.cpu.itb.stage2_mmu.stage2_tlb.perms_faults            0                       # Number of TLB faults due to permissions restrictions
system.cpu.itb.stage2_mmu.stage2_tlb.prefetch_faults            0                       # Number of TLB faults due to prefetch
system.cpu.itb.stage2_mmu.stage2_tlb.read_accesses            0                       # DTB read accesses
system.cpu.itb.stage2_mmu.stage2_tlb.read_hits            0                       # DTB read hits
system.cpu.itb.stage2_mmu.stage2_tlb.read_misses            0                       # DTB read misses
system.cpu.itb.stage2_mmu.stage2_tlb.walker.walkRequestOrigin_Requested::Data            0                       # Table walker requests started/completed, data/inst
system.cpu.itb.stage2_mmu.stage2_tlb.walker.walkRequestOrigin_Requested::Inst            0                       # Table walker requests started/completed, data/inst
system.cpu.itb.stage2_mmu.stage2_tlb.walker.walkRequestOrigin_Requested::total            0                       # Table walker requests started/completed, data/inst
system.cpu.itb.stage2_mmu.stage2_tlb.walker.walkRequestOrigin_Completed::Data            0                       # Table walker requests started/completed, data/inst
system.cpu.itb.stage2_mmu.stage2_tlb.walker.walkRequestOrigin_Completed::Inst            0                       # Table walker requests started/completed, data/inst
system.cpu.itb.stage2_mmu.stage2_tlb.walker.walkRequestOrigin_Completed::total            0                       # Table walker requests started/completed, data/inst
system.cpu.itb.stage2_mmu.stage2_tlb.walker.walkRequestOrigin::total            0                       # Table walker requests started/completed, data/inst
system.cpu.itb.stage2_mmu.stage2_tlb.walker.walks            0                       # Table walker walks requested
system.cpu.itb.stage2_mmu.stage2_tlb.write_accesses            0                       # DTB write accesses
system.cpu.itb.stage2_mmu.stage2_tlb.write_hits            0                       # DTB write hits
system.cpu.itb.stage2_mmu.stage2_tlb.write_misses            0                       # DTB write misses
system.cpu.itb.walker.walkRequestOrigin_Requested::Data            0                       # Table walker requests started/completed, data/inst
system.cpu.itb.walker.walkRequestOrigin_Requested::Inst            0                       # Table walker requests started/completed, data/inst
system.cpu.itb.walker.walkRequestOrigin_Requested::total            0                       # Table walker requests started/completed, data/inst
system.cpu.itb.walker.walkRequestOrigin_Completed::Data            0                       # Table walker requests started/completed, data/inst
system.cpu.itb.walker.walkRequestOrigin_Completed::Inst            0                       # Table walker requests started/completed, data/inst
system.cpu.itb.walker.walkRequestOrigin_Completed::total            0                       # Table walker requests started/completed, data/inst
system.cpu.itb.walker.walkRequestOrigin::total            0                       # Table walker requests started/completed, data/inst
system.cpu.itb.walker.walks                         0                       # Table walker walks requested
system.cpu.itb.write_accesses                       0                       # DTB write accesses
system.cpu.itb.write_hits                           0                       # DTB write hits
system.cpu.itb.write_misses                         0                       # DTB write misses
system.cpu.memDep0.conflictingLoads              2621                       # Number of conflicting loads.
system.cpu.memDep0.conflictingStores             2519                       # Number of conflicting stores.
system.cpu.memDep0.insertedLoads              3096190                       # Number of loads inserted to the mem dependence unit.
system.cpu.memDep0.insertedStores             1554738                       # Number of stores inserted to the mem dependence unit.
system.cpu.misc_regfile_reads                 8483286                       # number of misc regfile reads
system.cpu.misc_regfile_writes                     65                       # number of misc regfile writes
system.cpu.numCycles                         11469750                       # number of cpu cycles simulated
system.cpu.numWorkItemsCompleted                    0                       # number of work items this cpu completed
system.cpu.numWorkItemsStarted                      0                       # number of work items this cpu started
system.cpu.rename.BlockCycles                  841003                       # Number of cycles rename is blocking
system.cpu.rename.CommittedMaps              11474654                       # Number of HB maps that are committed
system.cpu.rename.IQFullEvents                   3819                       # Number of times rename has blocked due to IQ full
system.cpu.rename.IdleCycles                   632664                       # Number of cycles rename is idle
system.cpu.rename.LQFullEvents                 376931                       # Number of times rename has blocked due to LQ full
system.cpu.rename.ROBFullEvents                   227                       # Number of times rename has blocked due to ROB full
system.cpu.rename.RenameLookups              18415122                       # Number of register rename lookups that rename has made
system.cpu.rename.RenamedInsts               10624961                       # Number of instructions processed by rename
system.cpu.rename.RenamedOperands            12182919                       # Number of destination operands rename has renamed
system.cpu.rename.RunCycles                   1192685                       # Number of cycles rename is running
system.cpu.rename.SQFullEvents                8321215                       # Number of times rename has blocked due to SQ full
system.cpu.rename.SquashCycles                   5806                       # Number of cycles rename is squashing
system.cpu.rename.UnblockCycles               8763200                       # Number of cycles rename is unblocking
system.cpu.rename.UndoneMaps                   708215                       # Number of HB maps that are undone due to squashing
system.cpu.rename.int_rename_lookups         13721882                       # Number of integer rename lookups
system.cpu.rename.serializeStallCycles           3972                       # count of cycles rename stalled for serializing inst
system.cpu.rename.serializingInsts                102                       # count of serializing insts renamed
system.cpu.rename.skidInsts                   2896838                       # count of insts added to the skid buffer
system.cpu.rename.tempSerializingInsts             35                       # count of temporary serializing insts renamed
system.cpu.rename.vec_rename_lookups              632                       # Number of vector rename lookups
system.cpu.rob.rob_reads                     21728476                       # The number of ROB reads
system.cpu.rob.rob_writes                    21323398                       # The number of ROB writes
system.cpu.timesIdled                             304                       # Number of times that the entire CPU went into an idle state and unscheduled itself
system.cpu.vec_regfile_reads                      372                       # number of vector regfile reads
system.cpu.vec_regfile_writes                      92                       # number of vector regfile writes
system.cpu.workload.numSyscalls                     9                       # Number of system calls
system.membus.snoop_filter.hit_multi_requests            0                       # Number of requests hitting in the snoop filter with multiple (>1) holders of the requested data.
system.membus.snoop_filter.hit_multi_snoops            0                       # Number of snoops hitting in the snoop filter with multiple (>1) holders of the requested data.
system.membus.snoop_filter.hit_single_requests       198493                       # Number of requests hitting in the snoop filter with a single holder of the requested data.
system.membus.snoop_filter.hit_single_snoops            0                       # Number of snoops hitting in the snoop filter with a single holder of the requested data.
system.membus.snoop_filter.tot_requests        528186                       # Total number of requests made to the snoop filter.
system.membus.snoop_filter.tot_snoops               0                       # Total number of snoops made to the snoop filter.
system.tol2bus.snoop_filter.hit_multi_requests            1                       # Number of requests hitting in the snoop filter with multiple (>1) holders of the requested data.
system.tol2bus.snoop_filter.hit_multi_snoops            0                       # Number of snoops hitting in the snoop filter with multiple (>1) holders of the requested data.
system.tol2bus.snoop_filter.hit_single_requests       328701                       # Number of requests hitting in the snoop filter with a single holder of the requested data.
system.tol2bus.snoop_filter.hit_single_snoops          129                       # Number of snoops hitting in the snoop filter with a single holder of the requested data.
system.tol2bus.snoop_filter.tot_requests       658555                       # Total number of requests made to the snoop filter.
system.tol2bus.snoop_filter.tot_snoops            129                       # Total number of snoops made to the snoop filter.
system.membus.trans_dist::ReadResp                472                       # Transaction distribution
system.membus.trans_dist::WritebackDirty       198169                       # Transaction distribution
system.membus.trans_dist::CleanEvict              324                       # Transaction distribution
system.membus.trans_dist::ReadExReq            326394                       # Transaction distribution
system.membus.trans_dist::ReadExResp           326394                       # Transaction distribution
system.membus.trans_dist::ReadSharedReq           472                       # Transaction distribution
system.membus.trans_dist::InvalidateReq          2827                       # Transaction distribution
system.membus.pkt_count_system.l2.mem_side::system.mem_ctrls.port       855052                       # Packet count per connected master and slave (bytes)
system.membus.pkt_count::total                 855052                       # Packet count per connected master and slave (bytes)
system.membus.pkt_size_system.l2.mem_side::system.mem_ctrls.port     33602240                       # Cumulative packet size per connected master and slave (bytes)
system.membus.pkt_size::total                33602240                       # Cumulative packet size per connected master and slave (bytes)
system.membus.snoops                                0                       # Total snoops (count)
system.membus.snoopTraffic                          0                       # Total snoop traffic (bytes)
system.membus.snoop_fanout::samples            329693                       # Request fanout histogram
system.membus.snoop_fanout::mean                    0                       # Request fanout histogram
system.membus.snoop_fanout::stdev                   0                       # Request fanout histogram
system.membus.snoop_fanout::underflows              0      0.00%      0.00% # Request fanout histogram
system.membus.snoop_fanout::0                  329693    100.00%    100.00% # Request fanout histogram
system.membus.snoop_fanout::1                       0      0.00%    100.00% # Request fanout histogram
system.membus.snoop_fanout::overflows               0      0.00%    100.00% # Request fanout histogram
system.membus.snoop_fanout::min_value               0                       # Request fanout histogram
system.membus.snoop_fanout::max_value               0                       # Request fanout histogram
system.membus.snoop_fanout::total              329693                       # Request fanout histogram
system.membus.reqLayer0.occupancy          1410812500                       # Layer occupancy (ticks)
system.membus.reqLayer0.utilization              24.6                       # Layer utilization (%)
system.membus.respLayer1.occupancy         1661686250                       # Layer occupancy (ticks)
system.membus.respLayer1.utilization             29.0                       # Layer utilization (%)
system.membus.power_state.pwrStateResidencyTicks::UNDEFINED   5734874500                       # Cumulative time (in ticks) in various power states
system.tol2bus.trans_dist::ReadResp               616                       # Transaction distribution
system.tol2bus.trans_dist::WritebackDirty       526426                       # Transaction distribution
system.tol2bus.trans_dist::WritebackClean          366                       # Transaction distribution
system.tol2bus.trans_dist::CleanEvict             531                       # Transaction distribution
system.tol2bus.trans_dist::ReadExReq           326410                       # Transaction distribution
system.tol2bus.trans_dist::ReadExResp          326409                       # Transaction distribution
system.tol2bus.trans_dist::ReadCleanReq           494                       # Transaction distribution
system.tol2bus.trans_dist::ReadSharedReq          122                       # Transaction distribution
system.tol2bus.trans_dist::InvalidateReq         2828                       # Transaction distribution
system.tol2bus.trans_dist::InvalidateResp         2828                       # Transaction distribution
system.tol2bus.pkt_count_system.cpu.icache.mem_side::system.l2.cpu_side         1354                       # Packet count per connected master and slave (bytes)
system.tol2bus.pkt_count_system.cpu.dcache.mem_side::system.l2.cpu_side       987054                       # Packet count per connected master and slave (bytes)
system.tol2bus.pkt_count::total                988408                       # Packet count per connected master and slave (bytes)
system.tol2bus.pkt_size_system.cpu.icache.mem_side::system.l2.cpu_side        55040                       # Cumulative packet size per connected master and slave (bytes)
system.tol2bus.pkt_size_system.cpu.dcache.mem_side::system.l2.cpu_side     41906432                       # Cumulative packet size per connected master and slave (bytes)
system.tol2bus.pkt_size::total               41961472                       # Cumulative packet size per connected master and slave (bytes)
system.tol2bus.snoops                          198622                       # Total snoops (count)
system.tol2bus.snoopTraffic                  12682816                       # Total snoop traffic (bytes)
system.tol2bus.snoop_fanout::samples           528476                       # Request fanout histogram
system.tol2bus.snoop_fanout::mean            0.000246                       # Request fanout histogram
system.tol2bus.snoop_fanout::stdev           0.015682                       # Request fanout histogram
system.tol2bus.snoop_fanout::underflows             0      0.00%      0.00% # Request fanout histogram
system.tol2bus.snoop_fanout::0                 528346     99.98%     99.98% # Request fanout histogram
system.tol2bus.snoop_fanout::1                    130      0.02%    100.00% # Request fanout histogram
system.tol2bus.snoop_fanout::2                      0      0.00%    100.00% # Request fanout histogram
system.tol2bus.snoop_fanout::overflows              0      0.00%    100.00% # Request fanout histogram
system.tol2bus.snoop_fanout::min_value              0                       # Request fanout histogram
system.tol2bus.snoop_fanout::max_value              1                       # Request fanout histogram
system.tol2bus.snoop_fanout::total             528476                       # Request fanout histogram
system.tol2bus.reqLayer0.occupancy          657909465                       # Layer occupancy (ticks)
system.tol2bus.reqLayer0.utilization             11.5                       # Layer utilization (%)
system.tol2bus.respLayer1.occupancy         491212995                       # Layer occupancy (ticks)
system.tol2bus.respLayer1.utilization             8.6                       # Layer utilization (%)
system.tol2bus.respLayer0.occupancy            741499                       # Layer occupancy (ticks)
system.tol2bus.respLayer0.utilization             0.0                       # Layer utilization (%)
system.tol2bus.power_state.pwrStateResidencyTicks::UNDEFINED   5734874500                       # Cumulative time (in ticks) in various power states
system.voltage_domain.voltage                       1                       # Voltage in Volts
system.clk_domain.clock                          1000                       # Clock period in ticks
system.l2.demand_hits::.cpu.inst                   39                       # number of demand (read+write) hits
system.l2.demand_hits::.cpu.data                   47                       # number of demand (read+write) hits
system.l2.demand_hits::.cpu.icache.prefetcher           73                       # number of demand (read+write) hits
system.l2.demand_hits::total                      159                       # number of demand (read+write) hits
system.l2.overall_hits::.cpu.inst                  39                       # number of overall hits
system.l2.overall_hits::.cpu.data                  47                       # number of overall hits
system.l2.overall_hits::.cpu.icache.prefetcher           73                       # number of overall hits
system.l2.overall_hits::total                     159                       # number of overall hits
system.l2.demand_misses::.cpu.inst                382                       # number of demand (read+write) misses
system.l2.demand_misses::.cpu.data             326485                       # number of demand (read+write) misses
system.l2.demand_misses::total                 326867                       # number of demand (read+write) misses
system.l2.overall_misses::.cpu.inst               382                       # number of overall misses
system.l2.overall_misses::.cpu.data            326485                       # number of overall misses
system.l2.overall_misses::total                326867                       # number of overall misses
system.l2.demand_miss_latency::.cpu.inst     31267500                       # number of demand (read+write) miss cycles
system.l2.demand_miss_latency::.cpu.data  44539361500                       # number of demand (read+write) miss cycles
system.l2.demand_miss_latency::total      44570629000                       # number of demand (read+write) miss cycles
system.l2.overall_miss_latency::.cpu.inst     31267500                       # number of overall miss cycles
system.l2.overall_miss_latency::.cpu.data  44539361500                       # number of overall miss cycles
system.l2.overall_miss_latency::total     44570629000                       # number of overall miss cycles
system.l2.demand_accesses::.cpu.inst              421                       # number of demand (read+write) accesses
system.l2.demand_accesses::.cpu.data           326532                       # number of demand (read+write) accesses
system.l2.demand_accesses::.cpu.icache.prefetcher           73                       # number of demand (read+write) accesses
system.l2.demand_accesses::total               327026                       # number of demand (read+write) accesses
system.l2.overall_accesses::.cpu.inst             421                       # number of overall (read+write) accesses
system.l2.overall_accesses::.cpu.data          326532                       # number of overall (read+write) accesses
system.l2.overall_accesses::.cpu.icache.prefetcher           73                       # number of overall (read+write) accesses
system.l2.overall_accesses::total              327026                       # number of overall (read+write) accesses
system.l2.demand_miss_rate::.cpu.inst        0.907363                       # miss rate for demand accesses
system.l2.demand_miss_rate::.cpu.data        0.999856                       # miss rate for demand accesses
system.l2.demand_miss_rate::total            0.999514                       # miss rate for demand accesses
system.l2.overall_miss_rate::.cpu.inst       0.907363                       # miss rate for overall accesses
system.l2.overall_miss_rate::.cpu.data       0.999856                       # miss rate for overall accesses
system.l2.overall_miss_rate::total           0.999514                       # miss rate for overall accesses
system.l2.demand_avg_miss_latency::.cpu.inst 81852.094241                       # average overall miss latency
system.l2.demand_avg_miss_latency::.cpu.data 136420.850881                       # average overall miss latency
system.l2.demand_avg_miss_latency::total 136357.077955                       # average overall miss latency
system.l2.overall_avg_miss_latency::.cpu.inst 81852.094241                       # average overall miss latency
system.l2.overall_avg_miss_latency::.cpu.data 136420.850881                       # average overall miss latency
system.l2.overall_avg_miss_latency::total 136357.077955                       # average overall miss latency
system.l2.blocked_cycles::no_mshrs                  0                       # number of cycles access was blocked
system.l2.blocked_cycles::no_targets                0                       # number of cycles access was blocked
system.l2.blocked::no_mshrs                         0                       # number of cycles access was blocked
system.l2.blocked::no_targets                       0                       # number of cycles access was blocked
system.l2.avg_blocked_cycles::no_mshrs            nan                       # average number of cycles each access was blocked
system.l2.avg_blocked_cycles::no_targets          nan                       # average number of cycles each access was blocked
system.l2.writebacks::.writebacks              198169                       # number of writebacks
system.l2.writebacks::total                    198169                       # number of writebacks
system.l2.demand_mshr_misses::.cpu.inst           382                       # number of demand (read+write) MSHR misses
system.l2.demand_mshr_misses::.cpu.data        326485                       # number of demand (read+write) MSHR misses
system.l2.demand_mshr_misses::total            326867                       # number of demand (read+write) MSHR misses
system.l2.overall_mshr_misses::.cpu.inst          382                       # number of overall MSHR misses
system.l2.overall_mshr_misses::.cpu.data       326485                       # number of overall MSHR misses
system.l2.overall_mshr_misses::total           326867                       # number of overall MSHR misses
system.l2.demand_mshr_miss_latency::.cpu.inst     27447500                       # number of demand (read+write) MSHR miss cycles
system.l2.demand_mshr_miss_latency::.cpu.data  41274521001                       # number of demand (read+write) MSHR miss cycles
system.l2.demand_mshr_miss_latency::total  41301968501                       # number of demand (read+write) MSHR miss cycles
system.l2.overall_mshr_miss_latency::.cpu.inst     27447500                       # number of overall MSHR miss cycles
system.l2.overall_mshr_miss_latency::.cpu.data  41274521001                       # number of overall MSHR miss cycles
system.l2.overall_mshr_miss_latency::total  41301968501                       # number of overall MSHR miss cycles
system.l2.demand_mshr_miss_rate::.cpu.inst     0.907363                       # mshr miss rate for demand accesses
system.l2.demand_mshr_miss_rate::.cpu.data     0.999856                       # mshr miss rate for demand accesses
system.l2.demand_mshr_miss_rate::total       0.999514                       # mshr miss rate for demand accesses
system.l2.overall_mshr_miss_rate::.cpu.inst     0.907363                       # mshr miss rate for overall accesses
system.l2.overall_mshr_miss_rate::.cpu.data     0.999856                       # mshr miss rate for overall accesses
system.l2.overall_mshr_miss_rate::total      0.999514                       # mshr miss rate for overall accesses
system.l2.demand_avg_mshr_miss_latency::.cpu.inst 71852.094241                       # average overall mshr miss latency
system.l2.demand_avg_mshr_miss_latency::.cpu.data 126420.879982                       # average overall mshr miss latency
system.l2.demand_avg_mshr_miss_latency::total 126357.107022                       # average overall mshr miss latency
system.l2.overall_avg_mshr_miss_latency::.cpu.inst 71852.094241                       # average overall mshr miss latency
system.l2.overall_avg_mshr_miss_latency::.cpu.data 126420.879982                       # average overall mshr miss latency
system.l2.overall_avg_mshr_miss_latency::total 126357.107022                       # average overall mshr miss latency
system.l2.replacements                         198622                       # number of replacements
system.l2.WritebackDirty_hits::.writebacks       328257                       # number of WritebackDirty hits
system.l2.WritebackDirty_hits::total           328257                       # number of WritebackDirty hits
system.l2.WritebackDirty_accesses::.writebacks       328257                       # number of WritebackDirty accesses(hits+misses)
system.l2.WritebackDirty_accesses::total       328257                       # number of WritebackDirty accesses(hits+misses)
system.l2.WritebackClean_hits::.writebacks          366                       # number of WritebackClean hits
system.l2.WritebackClean_hits::total              366                       # number of WritebackClean hits
system.l2.WritebackClean_accesses::.writebacks          366                       # number of WritebackClean accesses(hits+misses)
system.l2.WritebackClean_accesses::total          366                       # number of WritebackClean accesses(hits+misses)
system.l2.ReadExReq_hits::.cpu.data                15                       # number of ReadExReq hits
system.l2.ReadExReq_hits::total                    15                       # number of ReadExReq hits
system.l2.ReadExReq_misses::.cpu.data          326395                       # number of ReadExReq misses
system.l2.ReadExReq_misses::total              326395                       # number of ReadExReq misses
system.l2.ReadExReq_miss_latency::.cpu.data  44531620000                       # number of ReadExReq miss cycles
system.l2.ReadExReq_miss_latency::total   44531620000                       # number of ReadExReq miss cycles
system.l2.ReadExReq_accesses::.cpu.data        326410                       # number of ReadExReq accesses(hits+misses)
system.l2.ReadExReq_accesses::total            326410                       # number of ReadExReq accesses(hits+misses)
system.l2.ReadExReq_miss_rate::.cpu.data     0.999954                       # miss rate for ReadExReq accesses
system.l2.ReadExReq_miss_rate::total         0.999954                       # miss rate for ReadExReq accesses
system.l2.ReadExReq_avg_miss_latency::.cpu.data 136434.749307                       # average ReadExReq miss latency
system.l2.ReadExReq_avg_miss_latency::total 136434.749307                       # average ReadExReq miss latency
system.l2.ReadExReq_mshr_misses::.cpu.data       326395                       # number of ReadExReq MSHR misses
system.l2.ReadExReq_mshr_misses::total         326395                       # number of ReadExReq MSHR misses
system.l2.ReadExReq_mshr_miss_latency::.cpu.data  41267679501                       # number of ReadExReq MSHR miss cycles
system.l2.ReadExReq_mshr_miss_latency::total  41267679501                       # number of ReadExReq MSHR miss cycles
system.l2.ReadExReq_mshr_miss_rate::.cpu.data     0.999954                       # mshr miss rate for ReadExReq accesses
system.l2.ReadExReq_mshr_miss_rate::total     0.999954                       # mshr miss rate for ReadExReq accesses
system.l2.ReadExReq_avg_mshr_miss_latency::.cpu.data 126434.778416                       # average ReadExReq mshr miss latency
system.l2.ReadExReq_avg_mshr_miss_latency::total 126434.778416                       # average ReadExReq mshr miss latency
system.l2.ReadCleanReq_hits::.cpu.inst             39                       # number of ReadCleanReq hits
system.l2.ReadCleanReq_hits::.cpu.icache.prefetcher           73                       # number of ReadCleanReq hits
system.l2.ReadCleanReq_hits::total                112                       # number of ReadCleanReq hits
system.l2.ReadCleanReq_misses::.cpu.inst          382                       # number of ReadCleanReq misses
system.l2.ReadCleanReq_misses::total              382                       # number of ReadCleanReq misses
system.l2.ReadCleanReq_miss_latency::.cpu.inst     31267500                       # number of ReadCleanReq miss cycles
system.l2.ReadCleanReq_miss_latency::total     31267500                       # number of ReadCleanReq miss cycles
system.l2.ReadCleanReq_accesses::.cpu.inst          421                       # number of ReadCleanReq accesses(hits+misses)
system.l2.ReadCleanReq_accesses::.cpu.icache.prefetcher           73                       # number of ReadCleanReq accesses(hits+misses)
[...]
system.cpu.icache.tags.occ_task_id_percent::1024     0.664062                       # Percentage of cache occupancy per task id
system.cpu.icache.tags.tag_accesses           1379146                       # Number of tag accesses
system.cpu.icache.tags.data_accesses          1379146                       # Number of data accesses
system.cpu.icache.tags.power_state.pwrStateResidencyTicks::UNDEFINED   5734874500                       # Cumulative time (in ticks) in various power states
system.cpu.dtb.walker.power_state.pwrStateResidencyTicks::UNDEFINED   5734874500                       # Cumulative time (in ticks) in various power states
system.cpu.dtb.stage2_mmu.stage2_tlb.walker.power_state.pwrStateResidencyTicks::UNDEFINED   5734874500                       # Cumulative time (in ticks) in various power states
system.cpu.itb.walker.power_state.pwrStateResidencyTicks::UNDEFINED   5734874500                       # Cumulative time (in ticks) in various power states
system.cpu.itb.stage2_mmu.stage2_tlb.walker.power_state.pwrStateResidencyTicks::UNDEFINED   5734874500                       # Cumulative time (in ticks) in various power states
system.cpu.dcache.demand_hits::.cpu.data      3101038                       # number of demand (read+write) hits
system.cpu.dcache.demand_hits::total          3101038                       # number of demand (read+write) hits
system.cpu.dcache.overall_hits::.cpu.data      3101042                       # number of overall hits
system.cpu.dcache.overall_hits::total         3101042                       # number of overall hits
system.cpu.dcache.demand_misses::.cpu.data      1460804                       # number of demand (read+write) misses
system.cpu.dcache.demand_misses::total        1460804                       # number of demand (read+write) misses
system.cpu.dcache.overall_misses::.cpu.data      1460807                       # number of overall misses
system.cpu.dcache.overall_misses::total       1460807                       # number of overall misses
system.cpu.dcache.demand_miss_latency::.cpu.data 163724461851                       # number of demand (read+write) miss cycles
system.cpu.dcache.demand_miss_latency::total 163724461851                       # number of demand (read+write) miss cycles
system.cpu.dcache.overall_miss_latency::.cpu.data 163724461851                       # number of overall miss cycles
system.cpu.dcache.overall_miss_latency::total 163724461851                       # number of overall miss cycles
system.cpu.dcache.demand_accesses::.cpu.data      4561842                       # number of demand (read+write) accesses
system.cpu.dcache.demand_accesses::total      4561842                       # number of demand (read+write) accesses
system.cpu.dcache.overall_accesses::.cpu.data      4561849                       # number of overall (read+write) accesses
system.cpu.dcache.overall_accesses::total      4561849                       # number of overall (read+write) accesses
system.cpu.dcache.demand_miss_rate::.cpu.data     0.320222                       # miss rate for demand accesses
system.cpu.dcache.demand_miss_rate::total     0.320222                       # miss rate for demand accesses
system.cpu.dcache.overall_miss_rate::.cpu.data     0.320223                       # miss rate for overall accesses
system.cpu.dcache.overall_miss_rate::total     0.320223                       # miss rate for overall accesses
system.cpu.dcache.demand_avg_miss_latency::.cpu.data 112078.322520                       # average overall miss latency
system.cpu.dcache.demand_avg_miss_latency::total 112078.322520                       # average overall miss latency
system.cpu.dcache.overall_avg_miss_latency::.cpu.data 112078.092350                       # average overall miss latency
system.cpu.dcache.overall_avg_miss_latency::total 112078.092350                       # average overall miss latency
system.cpu.dcache.blocked_cycles::no_mshrs         2946                       # number of cycles access was blocked
system.cpu.dcache.blocked_cycles::no_targets            0                       # number of cycles access was blocked
system.cpu.dcache.blocked::no_mshrs               122                       # number of cycles access was blocked
system.cpu.dcache.blocked::no_targets               0                       # number of cycles access was blocked
system.cpu.dcache.avg_blocked_cycles::no_mshrs    24.147541                       # average number of cycles each access was blocked
system.cpu.dcache.avg_blocked_cycles::no_targets          nan                       # average number of cycles each access was blocked
system.cpu.dcache.writebacks::.writebacks       328257                       # number of writebacks
system.cpu.dcache.writebacks::total            328257                       # number of writebacks
system.cpu.dcache.demand_mshr_hits::.cpu.data      1131447                       # number of demand (read+write) MSHR hits
system.cpu.dcache.demand_mshr_hits::total      1131447                       # number of demand (read+write) MSHR hits
system.cpu.dcache.overall_mshr_hits::.cpu.data      1131447                       # number of overall MSHR hits
system.cpu.dcache.overall_mshr_hits::total      1131447                       # number of overall MSHR hits
system.cpu.dcache.demand_mshr_misses::.cpu.data       329357                       # number of demand (read+write) MSHR misses
system.cpu.dcache.demand_mshr_misses::total       329357                       # number of demand (read+write) MSHR misses
system.cpu.dcache.overall_mshr_misses::.cpu.data       329360                       # number of overall MSHR misses
system.cpu.dcache.overall_mshr_misses::total       329360                       # number of overall MSHR misses
system.cpu.dcache.demand_mshr_miss_latency::.cpu.data  45147202852                       # number of demand (read+write) MSHR miss cycles
system.cpu.dcache.demand_mshr_miss_latency::total  45147202852                       # number of demand (read+write) MSHR miss cycles
system.cpu.dcache.overall_mshr_miss_latency::.cpu.data  45147472852                       # number of overall MSHR miss cycles
system.cpu.dcache.overall_mshr_miss_latency::total  45147472852                       # number of overall MSHR miss cycles
system.cpu.dcache.demand_mshr_miss_rate::.cpu.data     0.072198                       # mshr miss rate for demand accesses
system.cpu.dcache.demand_mshr_miss_rate::total     0.072198                       # mshr miss rate for demand accesses
system.cpu.dcache.overall_mshr_miss_rate::.cpu.data     0.072199                       # mshr miss rate for overall accesses
system.cpu.dcache.overall_mshr_miss_rate::total     0.072199                       # mshr miss rate for overall accesses
system.cpu.dcache.demand_avg_mshr_miss_latency::.cpu.data 137076.797675                       # average overall mshr miss latency
system.cpu.dcache.demand_avg_mshr_miss_latency::total 137076.797675                       # average overall mshr miss latency
system.cpu.dcache.overall_avg_mshr_miss_latency::.cpu.data 137076.368873                       # average overall mshr miss latency
system.cpu.dcache.overall_avg_mshr_miss_latency::total 137076.368873                       # average overall mshr miss latency
system.cpu.dcache.replacements                 328335                       # number of replacements
system.cpu.dcache.ReadReq_hits::.cpu.data      3094612                       # number of ReadReq hits
system.cpu.dcache.ReadReq_hits::total         3094612                       # number of ReadReq hits
system.cpu.dcache.ReadReq_misses::.cpu.data          339                       # number of ReadReq misses
system.cpu.dcache.ReadReq_misses::total           339                       # number of ReadReq misses
system.cpu.dcache.ReadReq_miss_latency::.cpu.data     17119500                       # number of ReadReq miss cycles
system.cpu.dcache.ReadReq_miss_latency::total     17119500                       # number of ReadReq miss cycles
system.cpu.dcache.ReadReq_accesses::.cpu.data      3094951                       # number of ReadReq accesses(hits+misses)
system.cpu.dcache.ReadReq_accesses::total      3094951                       # number of ReadReq accesses(hits+misses)
system.cpu.dcache.ReadReq_miss_rate::.cpu.data     0.000110                       # miss rate for ReadReq accesses
system.cpu.dcache.ReadReq_miss_rate::total     0.000110                       # miss rate for ReadReq accesses
system.cpu.dcache.ReadReq_avg_miss_latency::.cpu.data        50500                       # average ReadReq miss latency
system.cpu.dcache.ReadReq_avg_miss_latency::total        50500                       # average ReadReq miss latency
system.cpu.dcache.ReadReq_mshr_hits::.cpu.data          220                       # number of ReadReq MSHR hits
system.cpu.dcache.ReadReq_mshr_hits::total          220                       # number of ReadReq MSHR hits
system.cpu.dcache.ReadReq_mshr_misses::.cpu.data          119                       # number of ReadReq MSHR misses
system.cpu.dcache.ReadReq_mshr_misses::total          119                       # number of ReadReq MSHR misses
system.cpu.dcache.ReadReq_mshr_miss_latency::.cpu.data      8025000                       # number of ReadReq MSHR miss cycles
system.cpu.dcache.ReadReq_mshr_miss_latency::total      8025000                       # number of ReadReq MSHR miss cycles
system.cpu.dcache.ReadReq_mshr_miss_rate::.cpu.data     0.000038                       # mshr miss rate for ReadReq accesses
system.cpu.dcache.ReadReq_mshr_miss_rate::total     0.000038                       # mshr miss rate for ReadReq accesses
system.cpu.dcache.ReadReq_avg_mshr_miss_latency::.cpu.data 67436.974790                       # average ReadReq mshr miss latency
system.cpu.dcache.ReadReq_avg_mshr_miss_latency::total 67436.974790                       # average ReadReq mshr miss latency
system.cpu.dcache.WriteReq_hits::.cpu.data         6426                       # number of WriteReq hits
system.cpu.dcache.WriteReq_hits::total           6426                       # number of WriteReq hits
system.cpu.dcache.WriteReq_misses::.cpu.data      1457642                       # number of WriteReq misses
system.cpu.dcache.WriteReq_misses::total      1457642                       # number of WriteReq misses
system.cpu.dcache.WriteReq_miss_latency::.cpu.data 163587828499                       # number of WriteReq miss cycles
system.cpu.dcache.WriteReq_miss_latency::total 163587828499                       # number of WriteReq miss cycles
system.cpu.dcache.WriteReq_accesses::.cpu.data      1464068                       # number of WriteReq accesses(hits+misses)
system.cpu.dcache.WriteReq_accesses::total      1464068                       # number of WriteReq accesses(hits+misses)
system.cpu.dcache.WriteReq_miss_rate::.cpu.data     0.995611                       # miss rate for WriteReq accesses
system.cpu.dcache.WriteReq_miss_rate::total     0.995611                       # miss rate for WriteReq accesses
system.cpu.dcache.WriteReq_avg_miss_latency::.cpu.data 112227.713320                       # average WriteReq miss latency
system.cpu.dcache.WriteReq_avg_miss_latency::total 112227.713320                       # average WriteReq miss latency
system.cpu.dcache.WriteReq_mshr_hits::.cpu.data      1131227                       # number of WriteReq MSHR hits
system.cpu.dcache.WriteReq_mshr_hits::total      1131227                       # number of WriteReq MSHR hits
system.cpu.dcache.WriteReq_mshr_misses::.cpu.data       326415                       # number of WriteReq MSHR misses
system.cpu.dcache.WriteReq_mshr_misses::total       326415                       # number of WriteReq MSHR misses
system.cpu.dcache.WriteReq_mshr_miss_latency::.cpu.data  45022487000                       # number of WriteReq MSHR miss cycles
system.cpu.dcache.WriteReq_mshr_miss_latency::total  45022487000                       # number of WriteReq MSHR miss cycles
system.cpu.dcache.WriteReq_mshr_miss_rate::.cpu.data     0.222951                       # mshr miss rate for WriteReq accesses
system.cpu.dcache.WriteReq_mshr_miss_rate::total     0.222951                       # mshr miss rate for WriteReq accesses
system.cpu.dcache.WriteReq_avg_mshr_miss_latency::.cpu.data 137930.202350                       # average WriteReq mshr miss latency
system.cpu.dcache.WriteReq_avg_mshr_miss_latency::total 137930.202350                       # average WriteReq mshr miss latency
system.cpu.dcache.SoftPFReq_hits::.cpu.data            4                       # number of SoftPFReq hits
system.cpu.dcache.SoftPFReq_hits::total             4                       # number of SoftPFReq hits
system.cpu.dcache.SoftPFReq_misses::.cpu.data            3                       # number of SoftPFReq misses
system.cpu.dcache.SoftPFReq_misses::total            3                       # number of SoftPFReq misses
system.cpu.dcache.SoftPFReq_accesses::.cpu.data            7                       # number of SoftPFReq accesses(hits+misses)
system.cpu.dcache.SoftPFReq_accesses::total            7                       # number of SoftPFReq accesses(hits+misses)
system.cpu.dcache.SoftPFReq_miss_rate::.cpu.data     0.428571                       # miss rate for SoftPFReq accesses
system.cpu.dcache.SoftPFReq_miss_rate::total     0.428571                       # miss rate for SoftPFReq accesses
system.cpu.dcache.SoftPFReq_mshr_misses::.cpu.data            3                       # number of SoftPFReq MSHR misses
system.cpu.dcache.SoftPFReq_mshr_misses::total            3                       # number of SoftPFReq MSHR misses
system.cpu.dcache.SoftPFReq_mshr_miss_latency::.cpu.data       270000                       # number of SoftPFReq MSHR miss cycles
system.cpu.dcache.SoftPFReq_mshr_miss_latency::total       270000                       # number of SoftPFReq MSHR miss cycles
system.cpu.dcache.SoftPFReq_mshr_miss_rate::.cpu.data     0.428571                       # mshr miss rate for SoftPFReq accesses
system.cpu.dcache.SoftPFReq_mshr_miss_rate::total     0.428571                       # mshr miss rate for SoftPFReq accesses
system.cpu.dcache.SoftPFReq_avg_mshr_miss_latency::.cpu.data        90000                       # average SoftPFReq mshr miss latency
system.cpu.dcache.SoftPFReq_avg_mshr_miss_latency::total        90000                       # average SoftPFReq mshr miss latency
system.cpu.dcache.WriteLineReq_misses::.cpu.data         2823                       # number of WriteLineReq misses
system.cpu.dcache.WriteLineReq_misses::total         2823                       # number of WriteLineReq misses
system.cpu.dcache.WriteLineReq_miss_latency::.cpu.data    119513852                       # number of WriteLineReq miss cycles
system.cpu.dcache.WriteLineReq_miss_latency::total    119513852                       # number of WriteLineReq miss cycles
system.cpu.dcache.WriteLineReq_accesses::.cpu.data         2823                       # number of WriteLineReq accesses(hits+misses)
system.cpu.dcache.WriteLineReq_accesses::total         2823                       # number of WriteLineReq accesses(hits+misses)
system.cpu.dcache.WriteLineReq_miss_rate::.cpu.data            1                       # miss rate for WriteLineReq accesses
system.cpu.dcache.WriteLineReq_miss_rate::total            1                       # miss rate for WriteLineReq accesses
system.cpu.dcache.WriteLineReq_avg_miss_latency::.cpu.data 42335.760538                       # average WriteLineReq miss latency
system.cpu.dcache.WriteLineReq_avg_miss_latency::total 42335.760538                       # average WriteLineReq miss latency
system.cpu.dcache.WriteLineReq_mshr_misses::.cpu.data         2823                       # number of WriteLineReq MSHR misses
system.cpu.dcache.WriteLineReq_mshr_misses::total         2823                       # number of WriteLineReq MSHR misses
system.cpu.dcache.WriteLineReq_mshr_miss_latency::.cpu.data    116690852                       # number of WriteLineReq MSHR miss cycles
system.cpu.dcache.WriteLineReq_mshr_miss_latency::total    116690852                       # number of WriteLineReq MSHR miss cycles
system.cpu.dcache.WriteLineReq_mshr_miss_rate::.cpu.data            1                       # mshr miss rate for WriteLineReq accesses
system.cpu.dcache.WriteLineReq_mshr_miss_rate::total            1                       # mshr miss rate for WriteLineReq accesses
system.cpu.dcache.WriteLineReq_avg_mshr_miss_latency::.cpu.data 41335.760538                       # average WriteLineReq mshr miss latency
system.cpu.dcache.WriteLineReq_avg_mshr_miss_latency::total 41335.760538                       # average WriteLineReq mshr miss latency
system.cpu.dcache.LoadLockedReq_hits::.cpu.data           18                       # number of LoadLockedReq hits
system.cpu.dcache.LoadLockedReq_hits::total           18                       # number of LoadLockedReq hits
system.cpu.dcache.LoadLockedReq_accesses::.cpu.data           18                       # number of LoadLockedReq accesses(hits+misses)
system.cpu.dcache.LoadLockedReq_accesses::total           18                       # number of LoadLockedReq accesses(hits+misses)
system.cpu.dcache.StoreCondReq_hits::.cpu.data           16                       # number of StoreCondReq hits
system.cpu.dcache.StoreCondReq_hits::total           16                       # number of StoreCondReq hits
system.cpu.dcache.StoreCondReq_accesses::.cpu.data           16                       # number of StoreCondReq accesses(hits+misses)
system.cpu.dcache.StoreCondReq_accesses::total           16                       # number of StoreCondReq accesses(hits+misses)
system.cpu.dcache.power_state.pwrStateResidencyTicks::UNDEFINED   5734874500                       # Cumulative time (in ticks) in various power states
system.cpu.dcache.tags.tagsinuse          1020.558201                       # Cycle average of tags in use
system.cpu.dcache.tags.total_refs             3430435                       # Total number of references to valid blocks.
system.cpu.dcache.tags.sampled_refs            329359                       # Sample count of references to valid blocks.
system.cpu.dcache.tags.avg_refs             10.415489                       # Average number of references to valid blocks.
system.cpu.dcache.tags.warmup_cycle            176500                       # Cycle when the warmup percentage was hit.
system.cpu.dcache.tags.occ_blocks::.cpu.data  1020.558201                       # Average occupied blocks per requestor
system.cpu.dcache.tags.occ_percent::.cpu.data     0.996639                       # Average percentage of cache occupancy
system.cpu.dcache.tags.occ_percent::total     0.996639                       # Average percentage of cache occupancy
system.cpu.dcache.tags.occ_task_id_blocks::1024         1024                       # Occupied blocks per task id
system.cpu.dcache.tags.age_task_id_blocks_1024::0          584                       # Occupied blocks per task id
system.cpu.dcache.tags.age_task_id_blocks_1024::1          439                       # Occupied blocks per task id
system.cpu.dcache.tags.age_task_id_blocks_1024::3            1                       # Occupied blocks per task id
system.cpu.dcache.tags.occ_task_id_percent::1024            1                       # Percentage of cache occupancy per task id
system.cpu.dcache.tags.tag_accesses           9453125                       # Number of tag accesses
system.cpu.dcache.tags.data_accesses          9453125                       # Number of data accesses
system.cpu.dcache.tags.power_state.pwrStateResidencyTicks::UNDEFINED   5734874500                       # Cumulative time (in ticks) in various power states
system.cpu.power_state.pwrStateResidencyTicks::ON   5734874500                       # Cumulative time (in ticks) in various power states

---------- End Simulation Statistics   ----------
