
---------- Begin Simulation Statistics ----------
final_tick                                 7547948500                       # Number of ticks from beginning of simulation (restored from checkpoints and never reset)
host_inst_rate                                 115310                       # Simulator instruction rate (inst/s)
host_mem_usage                                 885024                       # Number of bytes of host memory used
host_op_rate                                   118934                       # Simulator op (including micro ops) rate (op/s)
host_seconds                                    86.72                       # Real time elapsed on the host
host_tick_rate                               87035055                       # Simulator tick rate (ticks/s)
sim_freq                                 1000000000000                       # Frequency of simulated ticks
sim_insts                                    10000000                       # Number of instructions simulated
sim_ops                                      10314289                       # Number of ops (including micro ops) simulated
sim_seconds                                  0.007548                       # Number of seconds simulated
sim_ticks                                  7547948500                       # Number of ticks simulated
system.cpu.branchPred.BTBCorrect                    0                       # Number of correct BTB predictions (this stat may not work properly.
system.cpu.branchPred.BTBHitPct             99.855745                       # BTB Hit Percentage
system.cpu.branchPred.BTBHits                  710905                       # Number of BTB hits
system.cpu.branchPred.BTBLookups               711932                       # Number of BTB lookups
system.cpu.branchPred.RASInCorrect                  2                       # Number of incorrect RAS predictions.
system.cpu.branchPred.condIncorrect              5116                       # Number of conditional branches incorrect
system.cpu.branchPred.condPredicted            381377                       # Number of conditional branches predicted
system.cpu.branchPred.indirectHits                 82                       # Number of indirect target hits.
system.cpu.branchPred.indirectLookups             261                       # Number of indirect predictor lookups.
system.cpu.branchPred.indirectMisses              179                       # Number of indirect misses.
system.cpu.branchPred.lookups                 1403088                       # Number of BP lookups
system.cpu.branchPred.usedRAS                  505457                       # Number of times the RAS was used to get a target.
system.cpu.branchPredindirectMispredicted           94                       # Number of mispredicted indirect branches.
system.cpu.cc_regfile_reads                    614730                       # number of cc regfile reads
system.cpu.cc_regfile_writes                   614466                       # number of cc regfile writes
system.cpu.commit.amos                              0                       # Number of atomic instructions committed
system.cpu.commit.branchMispredicts              4815                       # The number of times a branch was mispredicted
system.cpu.commit.branches                     864158                       # Number of branches committed
system.cpu.commit.bw_lim_events                649111                       # number cycles where commit BW limit reached
system.cpu.commit.commitNonSpecStalls             169                       # The number of times commit has been forced to stall to communicate backwards
system.cpu.commit.commitSquashedInsts         5161307                       # The number of squashed insts skipped by commit
system.cpu.commit.committedInsts             10003896                       # Number of instructions committed
system.cpu.commit.committedOps               10318185                       # Number of ops (including micro ops) committed
system.cpu.commit.committed_per_cycle::samples     14378223                       # Number of insts commited each cycle
system.cpu.commit.committed_per_cycle::mean     0.717626                       # Number of insts commited each cycle
system.cpu.commit.committed_per_cycle::stdev     1.818556                       # Number of insts commited each cycle
system.cpu.commit.committed_per_cycle::underflows            0      0.00%      0.00% # Number of insts commited each cycle
system.cpu.commit.committed_per_cycle::0     10678272     74.27%     74.27% # Number of insts commited each cycle
system.cpu.commit.committed_per_cycle::1      2048308     14.25%     88.51% # Number of insts commited each cycle
system.cpu.commit.committed_per_cycle::2       536575      3.73%     92.24% # Number of insts commited each cycle
system.cpu.commit.committed_per_cycle::3       114861      0.80%     93.04% # Number of insts commited each cycle
system.cpu.commit.committed_per_cycle::4       203299      1.41%     94.46% # Number of insts commited each cycle
system.cpu.commit.committed_per_cycle::5        69959      0.49%     94.94% # Number of insts commited each cycle
system.cpu.commit.committed_per_cycle::6        48601      0.34%     95.28% # Number of insts commited each cycle
system.cpu.commit.committed_per_cycle::7        29237      0.20%     95.49% # Number of insts commited each cycle
system.cpu.commit.committed_per_cycle::8       649111      4.51%    100.00% # Number of insts commited each cycle
system.cpu.commit.committed_per_cycle::overflows            0      0.00%    100.00% # Number of insts commited each cycle
system.cpu.commit.committed_per_cycle::min_value            0                       # Number of insts commited each cycle
system.cpu.commit.committed_per_cycle::max_value            8                       # Number of insts commited each cycle
system.cpu.commit.committed_per_cycle::total     14378223                       # Number of insts commited each cycle
system.cpu.commit.fp_insts                          0                       # Number of committed floating point instructions.
system.cpu.commit.function_calls               309623                       # Number of function calls committed.
system.cpu.commit.int_insts                  10148299                       # Number of committed integer instructions.
system.cpu.commit.loads                       1601695                       # Number of loads committed
system.cpu.commit.membars                         142                       # Number of memory barriers committed
system.cpu.commit.op_class_0::No_OpClass           35      0.00%      0.00% # Class of committed instruction
system.cpu.commit.op_class_0::IntAlu          5154710     49.96%     49.96% # Class of committed instruction
system.cpu.commit.op_class_0::IntMult         1623084     15.73%     65.69% # Class of committed instruction
system.cpu.commit.op_class_0::IntDiv           618291      5.99%     71.68% # Class of committed instruction
system.cpu.commit.op_class_0::FloatAdd              0      0.00%     71.68% # Class of committed instruction
system.cpu.commit.op_class_0::FloatCmp              0      0.00%     71.68% # Class of committed instruction
system.cpu.commit.op_class_0::FloatCvt              0      0.00%     71.68% # Class of committed instruction
system.cpu.commit.op_class_0::FloatMult             0      0.00%     71.68% # Class of committed instruction
system.cpu.commit.op_class_0::FloatMultAcc            0      0.00%     71.68% # Class of committed instruction
system.cpu.commit.op_class_0::FloatDiv              0      0.00%     71.68% # Class of committed instruction
system.cpu.commit.op_class_0::FloatMisc             0      0.00%     71.68% # Class of committed instruction
system.cpu.commit.op_class_0::FloatSqrt             0      0.00%     71.68% # Class of committed instruction
system.cpu.commit.op_class_0::SimdAdd              83      0.00%     71.68% # Class of committed instruction
system.cpu.commit.op_class_0::SimdAddAcc            0      0.00%     71.68% # Class of committed instruction
system.cpu.commit.op_class_0::SimdAlu             138      0.00%     71.68% # Class of committed instruction
system.cpu.commit.op_class_0::SimdCmp             140      0.00%     71.68% # Class of committed instruction
system.cpu.commit.op_class_0::SimdCvt               0      0.00%     71.68% # Class of committed instruction
system.cpu.commit.op_class_0::SimdMisc            103      0.00%     71.68% # Class of committed instruction
system.cpu.commit.op_class_0::SimdMult              0      0.00%     71.68% # Class of committed instruction
system.cpu.commit.op_class_0::SimdMultAcc            0      0.00%     71.68% # Class of committed instruction
system.cpu.commit.op_class_0::SimdShift             0      0.00%     71.68% # Class of committed instruction
system.cpu.commit.op_class_0::SimdShiftAcc            0      0.00%     71.68% # Class of committed instruction
system.cpu.commit.op_class_0::SimdDiv               0      0.00%     71.68% # Class of committed instruction
system.cpu.commit.op_class_0::SimdSqrt              0      0.00%     71.68% # Class of committed instruction
system.cpu.commit.op_class_0::SimdFloatAdd            0      0.00%     71.68% # Class of committed instruction
system.cpu.commit.op_class_0::SimdFloatAlu            0      0.00%     71.68% # Class of committed instruction
system.cpu.commit.op_class_0::SimdFloatCmp            0      0.00%     71.68% # Class of committed instruction
system.cpu.commit.op_class_0::SimdFloatCvt            0      0.00%     71.68% # Class of committed instruction
system.cpu.commit.op_class_0::SimdFloatDiv            0      0.00%     71.68% # Class of committed instruction
system.cpu.commit.op_class_0::SimdFloatMisc            0      0.00%     71.68% # Class of committed instruction
system.cpu.commit.op_class_0::SimdFloatMult            0      0.00%     71.68% # Class of committed instruction
system.cpu.commit.op_class_0::SimdFloatMultAcc            0      0.00%     71.68% # Class of committed instruction
system.cpu.commit.op_class_0::SimdFloatSqrt            0      0.00%     71.68% # Class of committed instruction
system.cpu.commit.op_class_0::SimdReduceAdd            0      0.00%     71.68% # Class of committed instruction
system.cpu.commit.op_class_0::SimdReduceAlu            0      0.00%     71.68% # Class of committed instruction
system.cpu.commit.op_class_0::SimdReduceCmp            0      0.00%     71.68% # Class of committed instruction
system.cpu.commit.op_class_0::SimdFloatReduceAdd            0      0.00%     71.68% # Class of committed instruction
system.cpu.commit.op_class_0::SimdFloatReduceCmp            0      0.00%     71.68% # Class of committed instruction
system.cpu.commit.op_class_0::SimdAes               0      0.00%     71.68% # Class of committed instruction
system.cpu.commit.op_class_0::SimdAesMix            0      0.00%     71.68% # Class of committed instruction
system.cpu.commit.op_class_0::SimdSha1Hash            0      0.00%     71.68% # Class of committed instruction
system.cpu.commit.op_class_0::SimdSha1Hash2            0      0.00%     71.68% # Class of committed instruction
system.cpu.commit.op_class_0::SimdSha256Hash            0      0.00%     71.68% # Class of committed instruction
system.cpu.commit.op_class_0::SimdSha256Hash2            0      0.00%     71.68% # Class of committed instruction
system.cpu.commit.op_class_0::SimdShaSigma2            0      0.00%     71.68% # Class of committed instruction
system.cpu.commit.op_class_0::SimdShaSigma3            0      0.00%     71.68% # Class of committed instruction
system.cpu.commit.op_class_0::SimdPredAlu            0      0.00%     71.68% # Class of committed instruction
system.cpu.commit.op_class_0::MemRead         1601695     15.52%     87.21% # Class of committed instruction
system.cpu.commit.op_class_0::MemWrite        1319906     12.79%    100.00% # Class of committed instruction
system.cpu.commit.op_class_0::FloatMemRead            0      0.00%    100.00% # Class of committed instruction
system.cpu.commit.op_class_0::FloatMemWrite            0      0.00%    100.00% # Class of committed instruction
system.cpu.commit.op_class_0::IprAccess             0      0.00%    100.00% # Class of committed instruction
system.cpu.commit.op_class_0::InstPrefetch            0      0.00%    100.00% # Class of committed instruction
system.cpu.commit.op_class_0::total          10318185                       # Class of committed instruction
system.cpu.commit.refs                        2921601                       # Number of memory references committed
system.cpu.commit.swp_count                         0                       # Number of s/w prefetches committed
system.cpu.commit.vec_insts                      1073                       # Number of committed Vector instructions.
system.cpu.committedInsts                    10000000                       # Number of Instructions Simulated
system.cpu.committedOps                      10314289                       # Number of Ops (including micro ops) Simulated
system.cpu.cpi                               1.509590                       # CPI: Cycles Per Instruction
system.cpu.cpi_total                         1.509590                       # CPI: Total CPI of All Threads
system.cpu.decode.BlockedCycles              11180054                       # Number of cycles decode is blocked
system.cpu.decode.BranchMispred                   303                       # Number of times decode detected a branch misprediction
system.cpu.decode.BranchResolved               699117                       # Number of times decode resolved a branch
system.cpu.decode.DecodedInsts               17480716                       # Number of instructions handled by decode
system.cpu.decode.IdleCycles                  1182820                       # Number of cycles decode is idle
system.cpu.decode.RunCycles                   2107604                       # Number of cycles decode is running
system.cpu.decode.SquashCycles                  43530                       # Number of cycles decode is squashing
system.cpu.decode.SquashedInsts                  1016                       # Number of squashed instructions handled by decode
system.cpu.decode.UnblockCycles                529341                       # Number of cycles decode is unblocking
system.cpu.dtb.accesses                             0                       # DTB accesses
system.cpu.dtb.align_faults                         0                       # Number of TLB faults due to alignment restrictions
system.cpu.dtb.domain_faults                        0                       # Number of TLB faults due to domain restrictions
system.cpu.dtb.flush_entries                        0                       # Number of entries that have been flushed from TLB
system.cpu.dtb.flush_tlb                            0                       # Number of times complete TLB was flushed
system.cpu.dtb.flush_tlb_asid                       0                       # Number of times TLB was flushed by ASID
system.cpu.dtb.flush_tlb_mva                        0                       # Number of times TLB was flushed by MVA
system.cpu.dtb.flush_tlb_mva_asid                   0                       # Number of times TLB was flushed by MVA & ASID
system.cpu.dtb.hits                                 0                       # DTB hits
system.cpu.dtb.inst_accesses                        0                       # ITB inst accesses
system.cpu.dtb.inst_hits                            0                       # ITB inst hits
system.cpu.dtb.inst_misses                          0                       # ITB inst misses
system.cpu.dtb.misses                               0                       # DTB misses
system.cpu.dtb.perms_faults                         0                       # Number of TLB faults due to permissions restrictions
system.cpu.dtb.prefetch_faults                      0                       # Number of TLB faults due to prefetch
system.cpu.dtb.read_accesses                        0                       # DTB read accesses
system.cpu.dtb.read_hits                            0                       # DTB read hits
system.cpu.dtb.read_misses                          0                       # DTB read misses
system.cpu.dtb.stage2_mmu.stage2_tlb.accesses            0                       # DTB accesses
system.cpu.dtb.stage2_mmu.stage2_tlb.align_faults            0                       # Number of TLB faults due to alignment restrictions
system.cpu.dtb.stage2_mmu.stage2_tlb.domain_faults            0                       # Number of TLB faults due to domain restrictions
system.cpu.dtb.stage2_mmu.stage2_tlb.flush_entries            0                       # Number of entries that have been flushed from TLB
system.cpu.dtb.stage2_mmu.stage2_tlb.flush_tlb            0                       # Number of times complete TLB was flushed
system.cpu.dtb.stage2_mmu.stage2_tlb.flush_tlb_asid            0                       # Number of times TLB was flushed by ASID
system.cpu.dtb.stage2_mmu.stage2_tlb.flush_tlb_mva            0                       # Number of times TLB was flushed by MVA
system.cpu.dtb.stage2_mmu.stage2_tlb.flush_tlb_mva_asid            0                       # Number of times TLB was flushed by MVA & ASID
system.cpu.dtb.stage2_mmu.stage2_tlb.hits            0                       # DTB hits
system.cpu.dtb.stage2_mmu.stage2_tlb.inst_accesses            0                       # ITB inst accesses
system.cpu.dtb.stage2_mmu.stage2_tlb.inst_hits            0                       # ITB inst hits
system.cpu.dtb.stage2_mmu.stage2_tlb.inst_misses            0                       # ITB inst misses
system.cpu.dtb.stage2_mmu.stage2_tlb.misses            0                       # DTB misses
system.cpu.dtb.stage2_mmu.stage2_tlb.perms_faults            0                       # Number of TLB faults due to permissions restrictions
system.cpu.dtb.stage2_mmu.stage2_tlb.prefetch_faults            0                       # Number of TLB faults due to prefetch
system.cpu.dtb.stage2_mmu.stage2_tlb.read_accesses            0                       # DTB read accesses
system.cpu.dtb.stage2_mmu.stage2_tlb.read_hits            0                       # DTB read hits
system.cpu.dtb.stage2_mmu.stage2_tlb.read_misses            0                       # DTB read misses
system.cpu.dtb.stage2_mmu.stage2_tlb.walker.walkRequestOrigin_Requested::Data            0                       # Table walker requests started/completed, data/inst
system.cpu.dtb.stage2_mmu.stage2_tlb.walker.walkRequestOrigin_Requested::Inst            0                       # Table walker requests started/completed, data/inst
system.cpu.dtb.stage2_mmu.stage2_tlb.walker.walkRequestOrigin_Requested::total            0                       # Table walker requests started/completed, data/inst
system.cpu.dtb.stage2_mmu.stage2_tlb.walker.walkRequestOrigin_Completed::Data            0                       # Table walker requests started/completed, data/inst
system.cpu.dtb.stage2_mmu.stage2_tlb.walker.walkRequestOrigin_Completed::Inst            0                       # Table walker requests started/completed, data/inst
system.cpu.dtb.stage2_mmu.stage2_tlb.walker.walkRequestOrigin_Completed::total            0                       # Table walker requests started/completed, data/inst
system.cpu.dtb.stage2_mmu.stage2_tlb.walker.walkRequestOrigin::total            0                       # Table walker requests started/completed, data/inst
system.cpu.dtb.stage2_mmu.stage2_tlb.walker.walks            0                       # Table walker walks requested
system.cpu.dtb.stage2_mmu.stage2_tlb.write_accesses            0                       # DTB write accesses
system.cpu.dtb.stage2_mmu.stage2_tlb.write_hits            0                       # DTB write hits
system.cpu.dtb.stage2_mmu.stage2_tlb.write_misses            0                       # DTB write misses
system.cpu.dtb.walker.walkRequestOrigin_Requested::Data            0                       # Table walker requests started/completed, data/inst
system.cpu.dtb.walker.walkRequestOrigin_Requested::Inst            0                       # Table walker requests started/completed, data/inst
system.cpu.dtb.walker.walkRequestOrigin_Requested::total            0                       # Table walker requests started/completed, data/inst
system.cpu.dtb.walker.walkRequestOrigin_Completed::Data            0                       # Table walker requests started/completed, data/inst
system.cpu.dtb.walker.walkRequestOrigin_Completed::Inst            0                       # Table walker requests started/completed, data/inst
system.cpu.dtb.walker.walkRequestOrigin_Completed::total            0                       # Table walker requests started/completed, data/inst
system.cpu.dtb.walker.walkRequestOrigin::total            0                       # Table walker requests started/completed, data/inst
system.cpu.dtb.walker.walks                         0                       # Table walker walks requested
system.cpu.dtb.write_accesses                       0                       # DTB write accesses
system.cpu.dtb.write_hits                           0                       # DTB write hits
system.cpu.dtb.write_misses                         0                       # DTB write misses
system.cpu.fetch.Branches                     1403088                       # Number of branches that fetch encountered
system.cpu.fetch.CacheLines                   2157944                       # Number of cache lines fetched
system.cpu.fetch.Cycles                      12777675                       # Number of cycles fetch has run and was not squashing or blocked
system.cpu.fetch.IcacheSquashes                 22115                       # Number of outstanding Icache misses that were squashed
system.cpu.fetch.Insts                       17666779                       # Number of instructions fetch has processed
system.cpu.fetch.SquashCycles                   87662                       # Number of cycles fetch has spent squashing
system.cpu.fetch.branchRate                  0.092945                       # Number of branch fetches per cycle
system.cpu.fetch.icacheStallCycles            2221843                       # Number of cycles fetch is stalled on an Icache miss
system.cpu.fetch.predictedBranches            1216444                       # Number of branches that fetch has predicted taken
system.cpu.fetch.rate                        1.170303                       # Number of inst fetches per cycle
system.cpu.fetch.rateDist::samples           15043349                       # Number of instructions fetched each cycle (Total)
system.cpu.fetch.rateDist::mean              1.211371                       # Number of instructions fetched each cycle (Total)
system.cpu.fetch.rateDist::stdev             2.564498                       # Number of instructions fetched each cycle (Total)
system.cpu.fetch.rateDist::underflows               0      0.00%      0.00% # Number of instructions fetched each cycle (Total)
system.cpu.fetch.rateDist::0                 11616179     77.22%     77.22% # Number of instructions fetched each cycle (Total)
system.cpu.fetch.rateDist::1                   320208      2.13%     79.35% # Number of instructions fetched each cycle (Total)
system.cpu.fetch.rateDist::2                   552369      3.67%     83.02% # Number of instructions fetched each cycle (Total)
system.cpu.fetch.rateDist::3                   219280      1.46%     84.48% # Number of instructions fetched each cycle (Total)
system.cpu.fetch.rateDist::4                   204597      1.36%     85.84% # Number of instructions fetched each cycle (Total)
system.cpu.fetch.rateDist::5                   360980      2.40%     88.24% # Number of instructions fetched each cycle (Total)
system.cpu.fetch.rateDist::6                   279331      1.86%     90.09% # Number of instructions fetched each cycle (Total)
system.cpu.fetch.rateDist::7                    82225      0.55%     90.64% # Number of instructions fetched each cycle (Total)
system.cpu.fetch.rateDist::8                  1408180      9.36%    100.00% # Number of instructions fetched each cycle (Total)
system.cpu.fetch.rateDist::overflows                0      0.00%    100.00% # Number of instructions fetched each cycle (Total)
system.cpu.fetch.rateDist::min_value                0                       # Number of instructions fetched each cycle (Total)
system.cpu.fetch.rateDist::max_value                8                       # Number of instructions fetched each cycle (Total)
system.cpu.fetch.rateDist::total             15043349                       # Number of instructions fetched each cycle (Total)
system.cpu.idleCycles                           52549                       # Total number of cycles that the CPU has spent unscheduled due to idling
system.cpu.iew.branchMispredicts                 4905                       # Number of branch mispredicts detected at execute
system.cpu.iew.exec_branches                  1294489                       # Number of branches executed
system.cpu.iew.exec_nop                          3934                       # number of nop insts executed
system.cpu.iew.exec_rate                     1.004971                       # Inst execution rate
system.cpu.iew.exec_refs                      4728392                       # number of memory reference insts executed
system.cpu.iew.exec_stores                    1976783                       # Number of stores executed
system.cpu.iew.exec_swp                             0                       # number of swp insts executed
system.cpu.iew.iewBlockCycles                 3050626                       # Number of cycles IEW is blocking
system.cpu.iew.iewDispLoadInsts               2768267                       # Number of dispatched load instructions
system.cpu.iew.iewDispNonSpecInsts                215                       # Number of dispatched non-speculative instructions
system.cpu.iew.iewDispSquashedInsts               254                       # Number of squashed instructions skipped by dispatch
system.cpu.iew.iewDispStoreInsts              2259609                       # Number of dispatched store instructions
system.cpu.iew.iewDispatchedInsts            17016829                       # Number of instructions dispatched to IQ
system.cpu.iew.iewExecLoadInsts               2751609                       # Number of load instructions executed
system.cpu.iew.iewExecSquashedInsts             82082                       # Number of squashed instructions skipped in execute
system.cpu.iew.iewExecutedInsts              15170936                       # Number of executed instructions
system.cpu.iew.iewIQFullEvents                 214703                       # Number of times the IQ has become full, causing a stall
system.cpu.iew.iewIdleCycles                        0                       # Number of cycles IEW is idle
system.cpu.iew.iewLSQFullEvents                907639                       # Number of times the LSQ has become full, causing a stall
system.cpu.iew.iewSquashCycles                  43530                       # Number of cycles IEW is squashing
system.cpu.iew.iewUnblockCycles               1150911                       # Number of cycles IEW is unblocking
system.cpu.iew.lsq.thread0.blockedLoads             0                       # Number of blocked loads due to partial load-store forwarding
system.cpu.iew.lsq.thread0.cacheBlocked             0                       # Number of times an access to memory failed due to the cache being blocked
system.cpu.iew.lsq.thread0.forwLoads              289                       # Number of loads that had data forwarded from stores
system.cpu.iew.lsq.thread0.ignoredResponses           10                       # Number of memory responses ignored because the instruction is squashed
system.cpu.iew.lsq.thread0.invAddrLoads             0                       # Number of loads ignored due to an invalid address
system.cpu.iew.lsq.thread0.invAddrSwpfs             0                       # Number of software prefetches ignored due to an invalid address
system.cpu.iew.lsq.thread0.memOrderViolation           34                       # Number of memory ordering violations
system.cpu.iew.lsq.thread0.rescheduledLoads          103                       # Number of loads that were rescheduled
system.cpu.iew.lsq.thread0.squashedLoads      1166552                       # Number of loads squashed
system.cpu.iew.lsq.thread0.squashedStores       939684                       # Number of stores squashed
system.cpu.iew.memOrderViolationEvents             34                       # Number of memory order violations
system.cpu.iew.predictedNotTakenIncorrect          744                       # Number of branches that were predicted not taken incorrectly
system.cpu.iew.predictedTakenIncorrect           4161                       # Number of branches that were predicted taken incorrectly
system.cpu.iew.wb_consumers                  16227478                       # num instructions consuming a value
system.cpu.iew.wb_count                      14505750                       # cumulative count of insts written-back
system.cpu.iew.wb_fanout                     0.646363                       # average fanout of values written-back
system.cpu.iew.wb_producers                  10488835                       # num instructions producing a value
system.cpu.iew.wb_rate                       0.960907                       # insts written-back per cycle
system.cpu.iew.wb_sent                       15162131                       # cumulative count of insts sent to commit
system.cpu.int_regfile_reads                 22638990                       # number of integer regfile reads
system.cpu.int_regfile_writes                12630042                       # number of integer regfile writes
system.cpu.ipc                               0.662432                       # IPC: Instructions Per Cycle
system.cpu.ipc_total                         0.662432                       # IPC: Total IPC of All Threads
system.cpu.iq.FU_type_0::No_OpClass                36      0.00%      0.00% # Type of FU issued
system.cpu.iq.FU_type_0::IntAlu               7768337     50.93%     50.93% # Type of FU issued
system.cpu.iq.FU_type_0::IntMult              2047638     13.42%     64.35% # Type of FU issued
system.cpu.iq.FU_type_0::IntDiv                695676      4.56%     68.92% # Type of FU issued
system.cpu.iq.FU_type_0::FloatAdd                   0      0.00%     68.92% # Type of FU issued
system.cpu.iq.FU_type_0::FloatCmp                   0      0.00%     68.92% # Type of FU issued
system.cpu.iq.FU_type_0::FloatCvt                   0      0.00%     68.92% # Type of FU issued
system.cpu.iq.FU_type_0::FloatMult                  0      0.00%     68.92% # Type of FU issued
system.cpu.iq.FU_type_0::FloatMultAcc               0      0.00%     68.92% # Type of FU issued
system.cpu.iq.FU_type_0::FloatDiv                   0      0.00%     68.92% # Type of FU issued
system.cpu.iq.FU_type_0::FloatMisc                  0      0.00%     68.92% # Type of FU issued
system.cpu.iq.FU_type_0::FloatSqrt                  0      0.00%     68.92% # Type of FU issued
system.cpu.iq.FU_type_0::SimdAdd                   88      0.00%     68.92% # Type of FU issued
system.cpu.iq.FU_type_0::SimdAddAcc                 0      0.00%     68.92% # Type of FU issued
system.cpu.iq.FU_type_0::SimdAlu                  145      0.00%     68.92% # Type of FU issued
system.cpu.iq.FU_type_0::SimdCmp                  144      0.00%     68.92% # Type of FU issued
system.cpu.iq.FU_type_0::SimdCvt                    0      0.00%     68.92% # Type of FU issued
system.cpu.iq.FU_type_0::SimdMisc                 107      0.00%     68.92% # Type of FU issued
system.cpu.iq.FU_type_0::SimdMult                   0      0.00%     68.92% # Type of FU issued
system.cpu.iq.FU_type_0::SimdMultAcc                0      0.00%     68.92% # Type of FU issued
system.cpu.iq.FU_type_0::SimdShift                  0      0.00%     68.92% # Type of FU issued
system.cpu.iq.FU_type_0::SimdShiftAcc               0      0.00%     68.92% # Type of FU issued
system.cpu.iq.FU_type_0::SimdDiv                    0      0.00%     68.92% # Type of FU issued
system.cpu.iq.FU_type_0::SimdSqrt                   0      0.00%     68.92% # Type of FU issued
system.cpu.iq.FU_type_0::SimdFloatAdd               0      0.00%     68.92% # Type of FU issued
system.cpu.iq.FU_type_0::SimdFloatAlu               0      0.00%     68.92% # Type of FU issued
system.cpu.iq.FU_type_0::SimdFloatCmp               0      0.00%     68.92% # Type of FU issued
system.cpu.iq.FU_type_0::SimdFloatCvt               0      0.00%     68.92% # Type of FU issued
system.cpu.iq.FU_type_0::SimdFloatDiv               0      0.00%     68.92% # Type of FU issued
system.cpu.iq.FU_type_0::SimdFloatMisc              0      0.00%     68.92% # Type of FU issued
system.cpu.iq.FU_type_0::SimdFloatMult              0      0.00%     68.92% # Type of FU issued
system.cpu.iq.FU_type_0::SimdFloatMultAcc            0      0.00%     68.92% # Type of FU issued
system.cpu.iq.FU_type_0::SimdFloatSqrt              0      0.00%     68.92% # Type of FU issued
system.cpu.iq.FU_type_0::SimdReduceAdd              0      0.00%     68.92% # Type of FU issued
system.cpu.iq.FU_type_0::SimdReduceAlu              0      0.00%     68.92% # Type of FU issued
system.cpu.iq.FU_type_0::SimdReduceCmp              0      0.00%     68.92% # Type of FU issued
system.cpu.iq.FU_type_0::SimdFloatReduceAdd            0      0.00%     68.92% # Type of FU issued
system.cpu.iq.FU_type_0::SimdFloatReduceCmp            0      0.00%     68.92% # Type of FU issued
system.cpu.iq.FU_type_0::SimdAes                    0      0.00%     68.92% # Type of FU issued
system.cpu.iq.FU_type_0::SimdAesMix                 0      0.00%     68.92% # Type of FU issued
system.cpu.iq.FU_type_0::SimdSha1Hash               0      0.00%     68.92% # Type of FU issued
system.cpu.iq.FU_type_0::SimdSha1Hash2              0      0.00%     68.92% # Type of FU issued
system.cpu.iq.FU_type_0::SimdSha256Hash             0      0.00%     68.92% # Type of FU issued
system.cpu.iq.FU_type_0::SimdSha256Hash2            0      0.00%     68.92% # Type of FU issued
system.cpu.iq.FU_type_0::SimdShaSigma2              0      0.00%     68.92% # Type of FU issued
system.cpu.iq.FU_type_0::SimdShaSigma3              0      0.00%     68.92% # Type of FU issued
system.cpu.iq.FU_type_0::SimdPredAlu                0      0.00%     68.92% # Type of FU issued
system.cpu.iq.FU_type_0::MemRead              2763915     18.12%     87.04% # Type of FU issued
system.cpu.iq.FU_type_0::MemWrite             1976935     12.96%    100.00% # Type of FU issued
system.cpu.iq.FU_type_0::FloatMemRead               0      0.00%    100.00% # Type of FU issued
system.cpu.iq.FU_type_0::FloatMemWrite              0      0.00%    100.00% # Type of FU issued
system.cpu.iq.FU_type_0::IprAccess                  0      0.00%    100.00% # Type of FU issued
system.cpu.iq.FU_type_0::InstPrefetch               0      0.00%    100.00% # Type of FU issued
system.cpu.iq.FU_type_0::total               15253021                       # Type of FU issued
system.cpu.iq.fp_alu_accesses                       0                       # Number of floating point alu accesses
system.cpu.iq.fp_inst_queue_reads                   0                       # Number of floating instruction queue reads
system.cpu.iq.fp_inst_queue_wakeup_accesses            0                       # Number of floating instruction queue wakeup accesses
system.cpu.iq.fp_inst_queue_writes                  0                       # Number of floating instruction queue writes
system.cpu.iq.fu_busy_cnt                    12072328                       # FU busy when requested
system.cpu.iq.fu_busy_rate                   0.791471                       # FU busy rate (busy events/executed inst)
system.cpu.iq.fu_full::No_OpClass                   0      0.00%      0.00% # attempts to use FU when none available
system.cpu.iq.fu_full::IntAlu                   73301      0.61%      0.61% # attempts to use FU when none available
system.cpu.iq.fu_full::IntMult                6285215     52.06%     52.67% # attempts to use FU when none available
system.cpu.iq.fu_full::IntDiv                 5520193     45.73%     98.40% # attempts to use FU when none available
system.cpu.iq.fu_full::FloatAdd                     0      0.00%     98.40% # attempts to use FU when none available
system.cpu.iq.fu_full::FloatCmp                     0      0.00%     98.40% # attempts to use FU when none available
system.cpu.iq.fu_full::FloatCvt                     0      0.00%     98.40% # attempts to use FU when none available
system.cpu.iq.fu_full::FloatMult                    0      0.00%     98.40% # attempts to use FU when none available
system.cpu.iq.fu_full::FloatMultAcc                 0      0.00%     98.40% # attempts to use FU when none available
system.cpu.iq.fu_full::FloatDiv                     0      0.00%     98.40% # attempts to use FU when none available
system.cpu.iq.fu_full::FloatMisc                    0      0.00%     98.40% # attempts to use FU when none available
system.cpu.iq.fu_full::FloatSqrt                    0      0.00%     98.40% # attempts to use FU when none available
system.cpu.iq.fu_full::SimdAdd                      0      0.00%     98.40% # attempts to use FU when none available
system.cpu.iq.fu_full::SimdAddAcc                   0      0.00%     98.40% # attempts to use FU when none available
system.cpu.iq.fu_full::SimdAlu                      1      0.00%     98.40% # attempts to use FU when none available
system.cpu.iq.fu_full::SimdCmp                      3      0.00%     98.40% # attempts to use FU when none available
system.cpu.iq.fu_full::SimdCvt                      0      0.00%     98.40% # attempts to use FU when none available
system.cpu.iq.fu_full::SimdMisc                     0      0.00%     98.40% # attempts to use FU when none available
system.cpu.iq.fu_full::SimdMult                     0      0.00%     98.40% # attempts to use FU when none available
system.cpu.iq.fu_full::SimdMultAcc                  0      0.00%     98.40% # attempts to use FU when none available
system.cpu.iq.fu_full::SimdShift                    0      0.00%     98.40% # attempts to use FU when none available
system.cpu.iq.fu_full::SimdShiftAcc                 0      0.00%     98.40% # attempts to use FU when none available
system.cpu.iq.fu_full::SimdDiv                      0      0.00%     98.40% # attempts to use FU when none available
system.cpu.iq.fu_full::SimdSqrt                     0      0.00%     98.40% # attempts to use FU when none available
system.cpu.iq.fu_full::SimdFloatAdd                 0      0.00%     98.40% # attempts to use FU when none available
system.cpu.iq.fu_full::SimdFloatAlu                 0      0.00%     98.40% # attempts to use FU when none available
system.cpu.iq.fu_full::SimdFloatCmp                 0      0.00%     98.40% # attempts to use FU when none available
system.cpu.iq.fu_full::SimdFloatCvt                 0      0.00%     98.40% # attempts to use FU when none available
system.cpu.iq.fu_full::SimdFloatDiv                 0      0.00%     98.40% # attempts to use FU when none available
system.cpu.iq.fu_full::SimdFloatMisc                0      0.00%     98.40% # attempts to use FU when none available
system.cpu.iq.fu_full::SimdFloatMult                0      0.00%     98.40% # attempts to use FU when none available
system.cpu.iq.fu_full::SimdFloatMultAcc             0      0.00%     98.40% # attempts to use FU when none available
system.cpu.iq.fu_full::SimdFloatSqrt                0      0.00%     98.40% # attempts to use FU when none available
system.cpu.iq.fu_full::SimdReduceAdd                0      0.00%     98.40% # attempts to use FU when none available
system.cpu.iq.fu_full::SimdReduceAlu                0      0.00%     98.40% # attempts to use FU when none available
system.cpu.iq.fu_full::SimdReduceCmp                0      0.00%     98.40% # attempts to use FU when none available
system.cpu.iq.fu_full::SimdFloatReduceAdd            0      0.00%     98.40% # attempts to use FU when none available
system.cpu.iq.fu_full::SimdFloatReduceCmp            0      0.00%     98.40% # attempts to use FU when none available
system.cpu.iq.fu_full::SimdAes                      0      0.00%     98.40% # attempts to use FU when none available
system.cpu.iq.fu_full::SimdAesMix                   0      0.00%     98.40% # attempts to use FU when none available
system.cpu.iq.fu_full::SimdSha1Hash                 0      0.00%     98.40% # attempts to use FU when none available
system.cpu.iq.fu_full::SimdSha1Hash2                0      0.00%     98.40% # attempts to use FU when none available
system.cpu.iq.fu_full::SimdSha256Hash               0      0.00%     98.40% # attempts to use FU when none available
system.cpu.iq.fu_full::SimdSha256Hash2              0      0.00%     98.40% # attempts to use FU when none available
system.cpu.iq.fu_full::SimdShaSigma2                0      0.00%     98.40% # attempts to use FU when none available
system.cpu.iq.fu_full::SimdShaSigma3                0      0.00%     98.40% # attempts to use FU when none available
system.cpu.iq.fu_full::SimdPredAlu                  0      0.00%     98.40% # attempts to use FU when none available
system.cpu.iq.fu_full::MemRead                 115966      0.96%     99.36% # attempts to use FU when none available
system.cpu.iq.fu_full::MemWrite                 77649      0.64%    100.00% # attempts to use FU when none available
system.cpu.iq.fu_full::FloatMemRead                 0      0.00%    100.00% # attempts to use FU when none available
system.cpu.iq.fu_full::FloatMemWrite                0      0.00%    100.00% # attempts to use FU when none available
system.cpu.iq.fu_full::IprAccess                    0      0.00%    100.00% # attempts to use FU when none available
system.cpu.iq.fu_full::InstPrefetch                 0      0.00%    100.00% # attempts to use FU when none available
system.cpu.iq.int_alu_accesses               27324034                       # Number of integer alu accesses
system.cpu.iq.int_inst_queue_reads           57889906                       # Number of integer instruction queue reads
system.cpu.iq.int_inst_queue_wakeup_accesses     14504626                       # Number of integer instruction queue wakeup accesses
system.cpu.iq.int_inst_queue_writes          23709842                       # Number of integer instruction queue writes
system.cpu.iq.iqInstsAdded                   17012680                       # Number of instructions added to the IQ (excludes non-spec)
system.cpu.iq.iqInstsIssued                  15253021                       # Number of instructions issued
system.cpu.iq.iqNonSpecInstsAdded                 215                       # Number of non-speculative instructions added to the IQ
system.cpu.iq.iqSquashedInstsExamined         6698470                       # Number of squashed instructions iterated over during squash; mainly for profiling
system.cpu.iq.iqSquashedInstsIssued            270677                       # Number of squashed instructions issued
system.cpu.iq.iqSquashedNonSpecRemoved             46                       # Number of squashed non-spec instructions that were removed
system.cpu.iq.iqSquashedOperandsExamined      5146187                       # Number of squashed operands that are examined and possibly removed from graph
system.cpu.iq.issued_per_cycle::samples      15043349                       # Number of insts issued each cycle
system.cpu.iq.issued_per_cycle::mean         1.013938                       # Number of insts issued each cycle
system.cpu.iq.issued_per_cycle::stdev        1.618411                       # Number of insts issued each cycle
system.cpu.iq.issued_per_cycle::underflows            0      0.00%      0.00% # Number of insts issued each cycle
system.cpu.iq.issued_per_cycle::0             8853421     58.85%     58.85% # Number of insts issued each cycle
system.cpu.iq.issued_per_cycle::1             2238965     14.88%     73.74% # Number of insts issued each cycle
system.cpu.iq.issued_per_cycle::2             1801743     11.98%     85.71% # Number of insts issued each cycle
system.cpu.iq.issued_per_cycle::3              786549      5.23%     90.94% # Number of insts issued each cycle
system.cpu.iq.issued_per_cycle::4              517592      3.44%     94.38% # Number of insts issued each cycle
system.cpu.iq.issued_per_cycle::5              380519      2.53%     96.91% # Number of insts issued each cycle
system.cpu.iq.issued_per_cycle::6              197307      1.31%     98.22% # Number of insts issued each cycle
system.cpu.iq.issued_per_cycle::7              243906      1.62%     99.84% # Number of insts issued each cycle
system.cpu.iq.issued_per_cycle::8               23347      0.16%    100.00% # Number of insts issued each cycle
system.cpu.iq.issued_per_cycle::overflows            0      0.00%    100.00% # Number of insts issued each cycle
system.cpu.iq.issued_per_cycle::min_value            0                       # Number of insts issued each cycle
system.cpu.iq.issued_per_cycle::max_value            8                       # Number of insts issued each cycle
system.cpu.iq.issued_per_cycle::total        15043349                       # Number of insts issued each cycle
system.cpu.iq.rate                           1.010408                       # Inst issue rate
system.cpu.iq.vec_alu_accesses                   1279                       # Number of vector alu accesses
system.cpu.iq.vec_inst_queue_reads               2487                       # Number of vector instruction queue reads
system.cpu.iq.vec_inst_queue_wakeup_accesses         1124                       # Number of vector instruction queue wakeup accesses
system.cpu.iq.vec_inst_queue_writes              1555                       # Number of vector instruction queue writes
system.cpu.itb.accesses                             0                       # DTB accesses
system.cpu.itb.align_faults                         0                       # Number of TLB faults due to alignment restrictions
system.cpu.itb.domain_faults                        0                       # Number of TLB faults due to domain restrictions
system.cpu.itb.flush_entries                        0                       # Number of entries that have been flushed from TLB
system.cpu.itb.flush_tlb                            0                       # Number of times complete TLB was flushed
system.cpu.itb.flush_tlb_asid                       0                       # Number of times TLB was flushed by ASID
system.cpu.itb.flush_tlb_mva                        0                       # Number of times TLB was flushed by MVA
system.cpu.itb.flush_tlb_mva_asid                   0                       # Number of times TLB was flushed by MVA & ASID
system.cpu.itb.hits                                 0                       # DTB hits
system.cpu.itb.inst_accesses                        0                       # ITB inst accesses
system.cpu.itb.inst_hits                            0                       # ITB inst hits
system.cpu.itb.inst_misses                          0                       # ITB inst misses
system.cpu.itb.misses                               0                       # DTB misses
system.cpu.itb.perms_faults                         0                       # Number of TLB faults due to permissions restrictions
system.cpu.itb.prefetch_faults                      0                       # Number of TLB faults due to prefetch
system.cpu.itb.read_accesses                        0                       # DTB read accesses
system.cpu.itb.read_hits                            0                       # DTB read hits
system.cpu.itb.read_misses                          0                       # DTB read misses
system.cpu.itb.stage2_mmu.stage2_tlb.accesses            0                       # DTB accesses
system.cpu.itb.stage2_mmu.stage2_tlb.align_faults            0                       # Number of TLB faults due to alignment restrictions
system.cpu.itb.stage2_mmu.stage2_tlb.domain_faults            0                       # Number of TLB faults due to domain restrictions
system.cpu.itb.stage2_mmu.stage2_tlb.flush_entries            0                       # Number of entries that have been flushed from TLB
system.cpu.itb.stage2_mmu.stage2_tlb.flush_tlb            0                       # Number of times complete TLB was flushed
system.cpu.itb.stage2_mmu.stage2_tlb.flush_tlb_asid            0                       # Number of times TLB was flushed by ASID
system.cpu.itb.stage2_mmu.stage2_tlb.flush_tlb_mva            0                       # Number of times TLB was flushed by MVA
system.cpu.itb.stage2_mmu.stage2_tlb.flush_tlb_mva_asid            0                       # Number of times TLB was flushed by MVA & ASID
system.cpu.itb.stage2_mmu.stage2_tlb.hits            0                       # DTB hits
system.cpu.itb.stage2_mmu.stage2_tlb.inst_accesses            0                       # ITB inst accesses
system.cpu.itb.stage2_mmu.stage2_tlb.inst_hits            0                       # ITB inst hits
system.cpu.itb.stage2_mmu.stage2_tlb.inst_misses            0                       # ITB inst misses
system.cpu.itb.stage2_mmu.stage2_tlb.misses            0                       # DTB misses
system.cpu.itb.stage2_mmu.stage2_tlb.perms_faults            0                       # Number of TLB faults due to permissions restrictions
system.cpu.itb.stage2_mmu.stage2_tlb.prefetch_faults            0                       # Number of TLB faults due to prefetch
system.cpu.itb.stage2_mmu.stage2_tlb.read_accesses            0                       # DTB read accesses
system.cpu.itb.stage2_mmu.stage2_tlb.read_hits            0                       # DTB read hits
system.cpu.itb.stage2_mmu.stage2_tlb.read_misses            0                       # DTB read misses
system.cpu.itb.stage2_mmu.stage2_tlb.walker.walkRequestOrigin_Requested::Data            0                       # Table walker requests started/completed, data/inst
system.cpu.itb.stage2_mmu.stage2_tlb.walker.walkRequestOrigin_Requested::Inst            0                       # Table walker requests started/completed, data/inst
system.cpu.itb.stage2_mmu.stage2_tlb.walker.walkRequestOrigin_Requested::total            0                       # Table walker requests started/completed, data/inst
system.cpu.itb.stage2_mmu.stage2_tlb.walker.walkRequestOrigin_Completed::Data            0                       # Table walker requests started/completed, data/inst
system.cpu.itb.stage2_mmu.stage2_tlb.walker.walkRequestOrigin_Completed::Inst            0                       # Table walker requests started/completed, data/inst
system.cpu.itb.stage2_mmu.stage2_tlb.walker.walkRequestOrigin_Completed::total            0                       # Table walker requests started/completed, data/inst
system.cpu.itb.stage2_mmu.stage2_tlb.walker.walkRequestOrigin::total            0                       # Table walker requests started/completed, data/inst
system.cpu.itb.stage2_mmu.stage2_tlb.walker.walks            0                       # Table walker walks requested
system.cpu.itb.stage2_mmu.stage2_tlb.write_accesses            0                       # DTB write accesses
system.cpu.itb.stage2_mmu.stage2_tlb.write_hits            0                       # DTB write hits
system.cpu.itb.stage2_mmu.stage2_tlb.write_misses            0                       # DTB write misses
system.cpu.itb.walker.walkRequestOrigin_Requested::Data            0                       # Table walker requests started/completed, data/inst
system.cpu.itb.walker.walkRequestOrigin_Requested::Inst            0                       # Table walker requests started/completed, data/inst
system.cpu.itb.walker.walkRequestOrigin_Requested::total            0                       # Table walker requests started/completed, data/inst
system.cpu.itb.walker.walkRequestOrigin_Completed::Data            0                       # Table walker requests started/completed, data/inst
system.cpu.itb.walker.walkRequestOrigin_Completed::Inst            0                       # Table walker requests started/completed, data/inst
system.cpu.itb.walker.walkRequestOrigin_Completed::total            0                       # Table walker requests started/completed, data/inst
system.cpu.itb.walker.walkRequestOrigin::total            0                       # Table walker requests started/completed, data/inst
system.cpu.itb.walker.walks                         0                       # Table walker walks requested
system.cpu.itb.write_accesses                       0                       # DTB write accesses
system.cpu.itb.write_hits                           0                       # DTB write hits
system.cpu.itb.write_misses                         0                       # DTB write misses
system.cpu.memDep0.conflictingLoads               257                       # Number of conflicting loads.
system.cpu.memDep0.conflictingStores               69                       # Number of conflicting stores.
system.cpu.memDep0.insertedLoads              2768267                       # Number of loads inserted to the mem dependence unit.
system.cpu.memDep0.insertedStores             2259609                       # Number of stores inserted to the mem dependence unit.
system.cpu.misc_regfile_reads                 9193204                       # number of misc regfile reads
system.cpu.misc_regfile_writes                    569                       # number of misc regfile writes
system.cpu.numCycles                         15095898                       # number of cpu cycles simulated
system.cpu.numWorkItemsCompleted                    0                       # number of work items this cpu completed
system.cpu.numWorkItemsStarted                      0                       # number of work items this cpu started
system.cpu.rename.BlockCycles                 4566803                       # Number of cycles rename is blocking
system.cpu.rename.CommittedMaps               9092211                       # Number of HB maps that are committed
system.cpu.rename.IQFullEvents                1299939                       # Number of times rename has blocked due to IQ full
system.cpu.rename.IdleCycles                  1285359                       # Number of cycles rename is idle
system.cpu.rename.ROBFullEvents                    13                       # Number of times rename has blocked due to ROB full
system.cpu.rename.RenameLookups              27396185                       # Number of register rename lookups that rename has made
system.cpu.rename.RenamedInsts               17223687                       # Number of instructions processed by rename
system.cpu.rename.RenamedOperands            15048663                       # Number of destination operands rename has renamed
system.cpu.rename.RunCycles                   2476192                       # Number of cycles rename is running
system.cpu.rename.SQFullEvents                5869412                       # Number of times rename has blocked due to SQ full
system.cpu.rename.SquashCycles                  43530                       # Number of cycles rename is squashing
system.cpu.rename.UnblockCycles               6659750                       # Number of cycles rename is unblocking
system.cpu.rename.UndoneMaps                  5956332                       # Number of HB maps that are undone due to squashing
system.cpu.rename.int_rename_lookups         26647095                       # Number of integer rename lookups
system.cpu.rename.serializeStallCycles          11715                       # count of cycles rename stalled for serializing inst
system.cpu.rename.serializingInsts                351                       # count of serializing insts renamed
system.cpu.rename.skidInsts                   1941136                       # count of insts added to the skid buffer
system.cpu.rename.tempSerializingInsts            217                       # count of temporary serializing insts renamed
system.cpu.rename.vec_rename_lookups             1662                       # Number of vector rename lookups
system.cpu.rob.rob_reads                     28705621                       # The number of ROB reads
system.cpu.rob.rob_writes                    31624257                       # The number of ROB writes
system.cpu.timesIdled                            1494                       # Number of times that the entire CPU went into an idle state and unscheduled itself
system.cpu.vec_regfile_reads                     1367                       # number of vector regfile reads
system.cpu.vec_regfile_writes                     590                       # number of vector regfile writes
system.cpu.workload.numSyscalls                    26                       # Number of system calls
system.membus.snoop_filter.hit_multi_requests            0                       # Number of requests hitting in the snoop filter with multiple (>1) holders of the requested data.
system.membus.snoop_filter.hit_multi_snoops            0                       # Number of snoops hitting in the snoop filter with multiple (>1) holders of the requested data.
system.membus.snoop_filter.hit_single_requests       146444                       # Number of requests hitting in the snoop filter with a single holder of the requested data.
system.membus.snoop_filter.hit_single_snoops            0                       # Number of snoops hitting in the snoop filter with a single holder of the requested data.
system.membus.snoop_filter.tot_requests        301907                       # Total number of requests made to the snoop filter.
system.membus.snoop_filter.tot_snoops               0                       # Total number of snoops made to the snoop filter.
system.tol2bus.snoop_filter.hit_multi_requests            1                       # Number of requests hitting in the snoop filter with multiple (>1) holders of the requested data.
system.tol2bus.snoop_filter.hit_multi_snoops            0                       # Number of snoops hitting in the snoop filter with multiple (>1) holders of the requested data.
system.tol2bus.snoop_filter.hit_single_requests       156651                       # Number of requests hitting in the snoop filter with a single holder of the requested data.
system.tol2bus.snoop_filter.hit_single_snoops            5                       # Number of snoops hitting in the snoop filter with a single holder of the requested data.
system.tol2bus.snoop_filter.tot_requests       313682                       # Total number of requests made to the snoop filter.
system.tol2bus.snoop_filter.tot_snoops              5                       # Total number of snoops made to the snoop filter.
system.membus.trans_dist::ReadResp                748                       # Transaction distribution
system.membus.trans_dist::WritebackDirty       146401                       # Transaction distribution
system.membus.trans_dist::CleanEvict               43                       # Transaction distribution
system.membus.trans_dist::ReadExReq            154707                       # Transaction distribution
system.membus.trans_dist::ReadExResp           154705                       # Transaction distribution
system.membus.trans_dist::ReadSharedReq           748                       # Transaction distribution
system.membus.trans_dist::InvalidateReq             8                       # Transaction distribution
system.membus.pkt_count_system.l2.mem_side::system.mem_ctrls.port       457360                       # Packet count per connected master and slave (bytes)
system.membus.pkt_count::total                 457360                       # Packet count per connected master and slave (bytes)
system.membus.pkt_size_system.l2.mem_side::system.mem_ctrls.port     19318656                       # Cumulative packet size per connected master and slave (bytes)
system.membus.pkt_size::total                19318656                       # Cumulative packet size per connected master and slave (bytes)
system.membus.snoops                                0                       # Total snoops (count)
system.membus.snoopTraffic                          0                       # Total snoop traffic (bytes)
system.membus.snoop_fanout::samples            155463                       # Request fanout histogram
system.membus.snoop_fanout::mean                    0                       # Request fanout histogram
system.membus.snoop_fanout::stdev                   0                       # Request fanout histogram
system.membus.snoop_fanout::underflows              0      0.00%      0.00% # Request fanout histogram
system.membus.snoop_fanout::0                  155463    100.00%    100.00% # Request fanout histogram
system.membus.snoop_fanout::1                       0      0.00%    100.00% # Request fanout histogram
system.membus.snoop_fanout::overflows               0      0.00%    100.00% # Request fanout histogram
system.membus.snoop_fanout::min_value               0                       # Request fanout histogram
system.membus.snoop_fanout::max_value               0                       # Request fanout histogram
system.membus.snoop_fanout::total              155463                       # Request fanout histogram
system.membus.reqLayer0.occupancy           898780000                       # Layer occupancy (ticks)
system.membus.reqLayer0.utilization              11.9                       # Layer utilization (%)
system.membus.respLayer1.occupancy          811755500                       # Layer occupancy (ticks)
system.membus.respLayer1.utilization             10.8                       # Layer utilization (%)
system.membus.power_state.pwrStateResidencyTicks::UNDEFINED   7547948500                       # Cumulative time (in ticks) in various power states
system.tol2bus.trans_dist::ReadResp              2315                       # Transaction distribution
system.tol2bus.trans_dist::WritebackDirty       300931                       # Transaction distribution
system.tol2bus.trans_dist::WritebackClean         2113                       # Transaction distribution
system.tol2bus.trans_dist::CleanEvict              56                       # Transaction distribution
system.tol2bus.trans_dist::ReadExReq           154708                       # Transaction distribution
system.tol2bus.trans_dist::ReadExResp          154706                       # Transaction distribution
system.tol2bus.trans_dist::ReadCleanReq          2177                       # Transaction distribution
system.tol2bus.trans_dist::ReadSharedReq          138                       # Transaction distribution
system.tol2bus.trans_dist::InvalidateReq            8                       # Transaction distribution
system.tol2bus.trans_dist::InvalidateResp            8                       # Transaction distribution
system.tol2bus.pkt_count_system.cpu.icache.mem_side::system.l2.cpu_side         6467                       # Packet count per connected master and slave (bytes)
system.tol2bus.pkt_count_system.cpu.dcache.mem_side::system.l2.cpu_side       464244                       # Packet count per connected master and slave (bytes)
system.tol2bus.pkt_count::total                470711                       # Packet count per connected master and slave (bytes)
system.tol2bus.pkt_size_system.cpu.icache.mem_side::system.l2.cpu_side       274560                       # Cumulative packet size per connected master and slave (bytes)
system.tol2bus.pkt_size_system.cpu.dcache.mem_side::system.l2.cpu_side     19799936                       # Cumulative packet size per connected master and slave (bytes)
system.tol2bus.pkt_size::total               20074496                       # Cumulative packet size per connected master and slave (bytes)
system.tol2bus.snoops                          146449                       # Total snoops (count)
system.tol2bus.snoopTraffic                   9369664                       # Total snoop traffic (bytes)
system.tol2bus.snoop_fanout::samples           303480                       # Request fanout histogram
system.tol2bus.snoop_fanout::mean            0.000020                       # Request fanout histogram
system.tol2bus.snoop_fanout::stdev           0.004446                       # Request fanout histogram
system.tol2bus.snoop_fanout::underflows             0      0.00%      0.00% # Request fanout histogram
system.tol2bus.snoop_fanout::0                 303474    100.00%    100.00% # Request fanout histogram
system.tol2bus.snoop_fanout::1                      6      0.00%    100.00% # Request fanout histogram
system.tol2bus.snoop_fanout::2                      0      0.00%    100.00% # Request fanout histogram
system.tol2bus.snoop_fanout::overflows              0      0.00%    100.00% # Request fanout histogram
system.tol2bus.snoop_fanout::min_value              0                       # Request fanout histogram
system.tol2bus.snoop_fanout::max_value              1                       # Request fanout histogram
system.tol2bus.snoop_fanout::total             303480                       # Request fanout histogram
system.tol2bus.reqLayer0.occupancy          313484000                       # Layer occupancy (ticks)
system.tol2bus.reqLayer0.utilization              4.2                       # Layer utilization (%)
system.tol2bus.respLayer1.occupancy         232270998                       # Layer occupancy (ticks)
system.tol2bus.respLayer1.utilization             3.1                       # Layer utilization (%)
system.tol2bus.respLayer0.occupancy           3265500                       # Layer occupancy (ticks)
system.tol2bus.respLayer0.utilization             0.0                       # Layer utilization (%)
system.tol2bus.power_state.pwrStateResidencyTicks::UNDEFINED   7547948500                       # Cumulative time (in ticks) in various power states
system.voltage_domain.voltage                       1                       # Voltage in Volts
system.clk_domain.clock                          1000                       # Clock period in ticks
system.l2.demand_hits::.cpu.inst                 1567                       # number of demand (read+write) hits
system.l2.demand_hits::.cpu.data                    1                       # number of demand (read+write) hits
system.l2.demand_hits::total                     1568                       # number of demand (read+write) hits
system.l2.overall_hits::.cpu.inst                1567                       # number of overall hits
system.l2.overall_hits::.cpu.data                   1                       # number of overall hits
system.l2.overall_hits::total                    1568                       # number of overall hits
system.l2.demand_misses::.cpu.inst                610                       # number of demand (read+write) misses
system.l2.demand_misses::.cpu.data             154845                       # number of demand (read+write) misses
system.l2.demand_misses::total                 155455                       # number of demand (read+write) misses
system.l2.overall_misses::.cpu.inst               610                       # number of overall misses
system.l2.overall_misses::.cpu.data            154845                       # number of overall misses
system.l2.overall_misses::total                155455                       # number of overall misses
system.l2.demand_miss_latency::.cpu.inst     48444500                       # number of demand (read+write) miss cycles
system.l2.demand_miss_latency::.cpu.data  13246425500                       # number of demand (read+write) miss cycles
system.l2.demand_miss_latency::total      13294870000                       # number of demand (read+write) miss cycles
system.l2.overall_miss_latency::.cpu.inst     48444500                       # number of overall miss cycles
system.l2.overall_miss_latency::.cpu.data  13246425500                       # number of overall miss cycles
system.l2.overall_miss_latency::total     13294870000                       # number of overall miss cycles
system.l2.demand_accesses::.cpu.inst             2177                       # number of demand (read+write) accesses
system.l2.demand_accesses::.cpu.data           154846                       # number of demand (read+write) accesses
system.l2.demand_accesses::total               157023                       # number of demand (read+write) accesses
system.l2.overall_accesses::.cpu.inst            2177                       # number of overall (read+write) accesses
system.l2.overall_accesses::.cpu.data          154846                       # number of overall (read+write) accesses
system.l2.overall_accesses::total              157023                       # number of overall (read+write) accesses
system.l2.demand_miss_rate::.cpu.inst        0.280202                       # miss rate for demand accesses
system.l2.demand_miss_rate::.cpu.data        0.999994                       # miss rate for demand accesses
system.l2.demand_miss_rate::total            0.990014                       # miss rate for demand accesses
system.l2.overall_miss_rate::.cpu.inst       0.280202                       # miss rate for overall accesses
system.l2.overall_miss_rate::.cpu.data       0.999994                       # miss rate for overall accesses
system.l2.overall_miss_rate::total           0.990014                       # miss rate for overall accesses
system.l2.demand_avg_miss_latency::.cpu.inst 79417.213115                       # average overall miss latency
system.l2.demand_avg_miss_latency::.cpu.data 85546.356033                       # average overall miss latency
system.l2.demand_avg_miss_latency::total 85522.305490                       # average overall miss latency
system.l2.overall_avg_miss_latency::.cpu.inst 79417.213115                       # average overall miss latency
system.l2.overall_avg_miss_latency::.cpu.data 85546.356033                       # average overall miss latency
system.l2.overall_avg_miss_latency::total 85522.305490                       # average overall miss latency
system.l2.blocked_cycles::no_mshrs                  0                       # number of cycles access was blocked
system.l2.blocked_cycles::no_targets                0                       # number of cycles access was blocked
system.l2.blocked::no_mshrs                         0                       # number of cycles access was blocked
system.l2.blocked::no_targets                       0                       # number of cycles access was blocked
system.l2.avg_blocked_cycles::no_mshrs            nan                       # average number of cycles each access was blocked
system.l2.avg_blocked_cycles::no_targets          nan                       # average number of cycles each access was blocked
system.l2.writebacks::.writebacks              146401                       # number of writebacks
system.l2.writebacks::total                    146401                       # number of writebacks
system.l2.demand_mshr_misses::.cpu.inst           610                       # number of demand (read+write) MSHR misses
system.l2.demand_mshr_misses::.cpu.data        154845                       # number of demand (read+write) MSHR misses
system.l2.demand_mshr_misses::total            155455                       # number of demand (read+write) MSHR misses
system.l2.overall_mshr_misses::.cpu.inst          610                       # number of overall MSHR misses
system.l2.overall_mshr_misses::.cpu.data       154845                       # number of overall MSHR misses
system.l2.overall_mshr_misses::total           155455                       # number of overall MSHR misses
system.l2.demand_mshr_miss_latency::.cpu.inst     42344500                       # number of demand (read+write) MSHR miss cycles
system.l2.demand_mshr_miss_latency::.cpu.data  11697995500                       # number of demand (read+write) MSHR miss cycles
system.l2.demand_mshr_miss_latency::total  11740340000                       # number of demand (read+write) MSHR miss cycles
system.l2.overall_mshr_miss_latency::.cpu.inst     42344500                       # number of overall MSHR miss cycles
system.l2.overall_mshr_miss_latency::.cpu.data  11697995500                       # number of overall MSHR miss cycles
system.l2.overall_mshr_miss_latency::total  11740340000                       # number of overall MSHR miss cycles
system.l2.demand_mshr_miss_rate::.cpu.inst     0.280202                       # mshr miss rate for demand accesses
system.l2.demand_mshr_miss_rate::.cpu.data     0.999994                       # mshr miss rate for demand accesses
system.l2.demand_mshr_miss_rate::total       0.990014                       # mshr miss rate for demand accesses
system.l2.overall_mshr_miss_rate::.cpu.inst     0.280202                       # mshr miss rate for overall accesses
system.l2.overall_mshr_miss_rate::.cpu.data     0.999994                       # mshr miss rate for overall accesses
system.l2.overall_mshr_miss_rate::total      0.990014                       # mshr miss rate for overall accesses
system.l2.demand_avg_mshr_miss_latency::.cpu.inst 69417.213115                       # average overall mshr miss latency
system.l2.demand_avg_mshr_miss_latency::.cpu.data 75546.485195                       # average overall mshr miss latency
system.l2.demand_avg_mshr_miss_latency::total 75522.434145                       # average overall mshr miss latency
system.l2.overall_avg_mshr_miss_latency::.cpu.inst 69417.213115                       # average overall mshr miss latency
system.l2.overall_avg_mshr_miss_latency::.cpu.data 75546.485195                       # average overall mshr miss latency
system.l2.overall_avg_mshr_miss_latency::total 75522.434145                       # average overall mshr miss latency
system.l2.replacements                         146449                       # number of replacements
system.l2.WritebackDirty_hits::.writebacks       154530                       # number of WritebackDirty hits
system.l2.WritebackDirty_hits::total           154530                       # number of WritebackDirty hits
system.l2.WritebackDirty_accesses::.writebacks       154530                       # number of WritebackDirty accesses(hits+misses)
system.l2.WritebackDirty_accesses::total       154530                       # number of WritebackDirty accesses(hits+misses)
system.l2.WritebackClean_hits::.writebacks         2112                       # number of WritebackClean hits
system.l2.WritebackClean_hits::total             2112                       # number of WritebackClean hits
system.l2.WritebackClean_accesses::.writebacks         2112                       # number of WritebackClean accesses(hits+misses)
system.l2.WritebackClean_accesses::total         2112                       # number of WritebackClean accesses(hits+misses)
system.l2.ReadExReq_hits::.cpu.data                 1                       # number of ReadExReq hits
system.l2.ReadExReq_hits::total                     1                       # number of ReadExReq hits
system.l2.ReadExReq_misses::.cpu.data          154707                       # number of ReadExReq misses
system.l2.ReadExReq_misses::total              154707                       # number of ReadExReq misses
system.l2.ReadExReq_miss_latency::.cpu.data  13234859000                       # number of ReadExReq miss cycles
system.l2.ReadExReq_miss_latency::total   13234859000                       # number of ReadExReq miss cycles
system.l2.ReadExReq_accesses::.cpu.data        154708                       # number of ReadExReq accesses(hits+misses)
system.l2.ReadExReq_accesses::total            154708                       # number of ReadExReq accesses(hits+misses)
system.l2.ReadExReq_miss_rate::.cpu.data     0.999994                       # miss rate for ReadExReq accesses
system.l2.ReadExReq_miss_rate::total         0.999994                       # miss rate for ReadExReq accesses
system.l2.ReadExReq_avg_miss_latency::.cpu.data 85547.900224                       # average ReadExReq miss latency
system.l2.ReadExReq_avg_miss_latency::total 85547.900224                       # average ReadExReq miss latency
system.l2.ReadExReq_mshr_misses::.cpu.data       154707                       # number of ReadExReq MSHR misses
system.l2.ReadExReq_mshr_misses::total         154707                       # number of ReadExReq MSHR misses
system.l2.ReadExReq_mshr_miss_latency::.cpu.data  11687809000                       # number of ReadExReq MSHR miss cycles
system.l2.ReadExReq_mshr_miss_latency::total  11687809000                       # number of ReadExReq MSHR miss cycles
system.l2.ReadExReq_mshr_miss_rate::.cpu.data     0.999994                       # mshr miss rate for ReadExReq accesses
system.l2.ReadExReq_mshr_miss_rate::total     0.999994                       # mshr miss rate for ReadExReq accesses
system.l2.ReadExReq_avg_mshr_miss_latency::.cpu.data 75548.029501                       # average ReadExReq mshr miss latency
system.l2.ReadExReq_avg_mshr_miss_latency::total 75548.029501                       # average ReadExReq mshr miss latency
system.l2.ReadCleanReq_hits::.cpu.inst           1567                       # number of ReadCleanReq hits
system.l2.ReadCleanReq_hits::total               1567                       # number of ReadCleanReq hits
system.l2.ReadCleanReq_misses::.cpu.inst          610                       # number of ReadCleanReq misses
system.l2.ReadCleanReq_misses::total              610                       # number of ReadCleanReq misses
system.l2.ReadCleanReq_miss_latency::.cpu.inst     48444500                       # number of ReadCleanReq miss cycles
system.l2.ReadCleanReq_miss_latency::total     48444500                       # number of ReadCleanReq miss cycles
system.l2.ReadCleanReq_accesses::.cpu.inst         2177                       # number of ReadCleanReq accesses(hits+misses)
system.l2.ReadCleanReq_accesses::total           2177                       # number of ReadCleanReq accesses(hits+misses)
system.l2.ReadCleanReq_miss_rate::.cpu.inst     0.280202                       # miss rate for ReadCleanReq accesses
system.l2.ReadCleanReq_miss_rate::total      0.280202                       # miss rate for ReadCleanReq accesses
system.l2.ReadCleanReq_avg_miss_latency::.cpu.inst 79417.213115                       # average ReadCleanReq miss latency
system.l2.ReadCleanReq_avg_miss_latency::total 79417.213115                       # average ReadCleanReq miss latency
system.l2.ReadCleanReq_mshr_misses::.cpu.inst          610                       # number of ReadCleanReq MSHR misses
system.l2.ReadCleanReq_mshr_misses::total          610                       # number of ReadCleanReq MSHR misses
system.l2.ReadCleanReq_mshr_miss_latency::.cpu.inst     42344500                       # number of ReadCleanReq MSHR miss cycles
system.l2.ReadCleanReq_mshr_miss_latency::total     42344500                       # number of ReadCleanReq MSHR miss cycles
system.l2.ReadCleanReq_mshr_miss_rate::.cpu.inst     0.280202                       # mshr miss rate for ReadCleanReq accesses
system.l2.ReadCleanReq_mshr_miss_rate::total     0.280202                       # mshr miss rate for ReadCleanReq accesses
system.l2.ReadCleanReq_avg_mshr_miss_latency::.cpu.inst 69417.213115                       # average ReadCleanReq mshr miss latency
system.l2.ReadCleanReq_avg_mshr_miss_latency::total 69417.213115                       # average ReadCleanReq mshr miss latency
[...]
system.cpu.dcache.overall_misses::total       1314766                       # number of overall misses
system.cpu.dcache.demand_miss_latency::.cpu.data 104391437500                       # number of demand (read+write) miss cycles
system.cpu.dcache.demand_miss_latency::total 104391437500                       # number of demand (read+write) miss cycles
system.cpu.dcache.overall_miss_latency::.cpu.data 104391437500                       # number of overall miss cycles
system.cpu.dcache.overall_miss_latency::total 104391437500                       # number of overall miss cycles
system.cpu.dcache.demand_accesses::.cpu.data      4070782                       # number of demand (read+write) accesses
system.cpu.dcache.demand_accesses::total      4070782                       # number of demand (read+write) accesses
system.cpu.dcache.overall_accesses::.cpu.data      4070838                       # number of overall (read+write) accesses
system.cpu.dcache.overall_accesses::total      4070838                       # number of overall (read+write) accesses
system.cpu.dcache.demand_miss_rate::.cpu.data     0.322975                       # miss rate for demand accesses
system.cpu.dcache.demand_miss_rate::total     0.322975                       # miss rate for demand accesses
system.cpu.dcache.overall_miss_rate::.cpu.data     0.322972                       # miss rate for overall accesses
system.cpu.dcache.overall_miss_rate::total     0.322972                       # miss rate for overall accesses
system.cpu.dcache.demand_avg_miss_latency::.cpu.data 79399.493977                       # average overall miss latency
system.cpu.dcache.demand_avg_miss_latency::total 79399.493977                       # average overall miss latency
system.cpu.dcache.overall_avg_miss_latency::.cpu.data 79399.252414                       # average overall miss latency
system.cpu.dcache.overall_avg_miss_latency::total 79399.252414                       # average overall miss latency
system.cpu.dcache.blocked_cycles::no_mshrs            0                       # number of cycles access was blocked
system.cpu.dcache.blocked_cycles::no_targets            0                       # number of cycles access was blocked
system.cpu.dcache.blocked::no_mshrs                 0                       # number of cycles access was blocked
system.cpu.dcache.blocked::no_targets               0                       # number of cycles access was blocked
system.cpu.dcache.avg_blocked_cycles::no_mshrs          nan                       # average number of cycles each access was blocked
system.cpu.dcache.avg_blocked_cycles::no_targets          nan                       # average number of cycles each access was blocked
system.cpu.dcache.writebacks::.writebacks       154530                       # number of writebacks
system.cpu.dcache.writebacks::total            154530                       # number of writebacks
system.cpu.dcache.demand_mshr_hits::.cpu.data      1159912                       # number of demand (read+write) MSHR hits
system.cpu.dcache.demand_mshr_hits::total      1159912                       # number of demand (read+write) MSHR hits
system.cpu.dcache.overall_mshr_hits::.cpu.data      1159912                       # number of overall MSHR hits
system.cpu.dcache.overall_mshr_hits::total      1159912                       # number of overall MSHR hits
system.cpu.dcache.demand_mshr_misses::.cpu.data       154850                       # number of demand (read+write) MSHR misses
system.cpu.dcache.demand_mshr_misses::total       154850                       # number of demand (read+write) MSHR misses
system.cpu.dcache.overall_mshr_misses::.cpu.data       154853                       # number of overall MSHR misses
system.cpu.dcache.overall_mshr_misses::total       154853                       # number of overall MSHR misses
system.cpu.dcache.demand_mshr_miss_latency::.cpu.data  13478634500                       # number of demand (read+write) MSHR miss cycles
system.cpu.dcache.demand_mshr_miss_latency::total  13478634500                       # number of demand (read+write) MSHR miss cycles
system.cpu.dcache.overall_mshr_miss_latency::.cpu.data  13478868500                       # number of overall MSHR miss cycles
system.cpu.dcache.overall_mshr_miss_latency::total  13478868500                       # number of overall MSHR miss cycles
system.cpu.dcache.demand_mshr_miss_rate::.cpu.data     0.038039                       # mshr miss rate for demand accesses
system.cpu.dcache.demand_mshr_miss_rate::total     0.038039                       # mshr miss rate for demand accesses
system.cpu.dcache.overall_mshr_miss_rate::.cpu.data     0.038040                       # mshr miss rate for overall accesses
system.cpu.dcache.overall_mshr_miss_rate::total     0.038040                       # mshr miss rate for overall accesses
system.cpu.dcache.demand_avg_mshr_miss_latency::.cpu.data 87043.167582                       # average overall mshr miss latency
system.cpu.dcache.demand_avg_mshr_miss_latency::total 87043.167582                       # average overall mshr miss latency
system.cpu.dcache.overall_avg_mshr_miss_latency::.cpu.data 87042.992386                       # average overall mshr miss latency
system.cpu.dcache.overall_avg_mshr_miss_latency::total 87042.992386                       # average overall mshr miss latency
system.cpu.dcache.replacements                 154538                       # number of replacements
system.cpu.dcache.ReadReq_hits::.cpu.data      2750697                       # number of ReadReq hits
system.cpu.dcache.ReadReq_hits::total         2750697                       # number of ReadReq hits
system.cpu.dcache.ReadReq_misses::.cpu.data          300                       # number of ReadReq misses
system.cpu.dcache.ReadReq_misses::total           300                       # number of ReadReq misses
system.cpu.dcache.ReadReq_miss_latency::.cpu.data     23014500                       # number of ReadReq miss cycles
system.cpu.dcache.ReadReq_miss_latency::total     23014500                       # number of ReadReq miss cycles
system.cpu.dcache.ReadReq_accesses::.cpu.data      2750997                       # number of ReadReq accesses(hits+misses)
system.cpu.dcache.ReadReq_accesses::total      2750997                       # number of ReadReq accesses(hits+misses)
system.cpu.dcache.ReadReq_miss_rate::.cpu.data     0.000109                       # miss rate for ReadReq accesses
system.cpu.dcache.ReadReq_miss_rate::total     0.000109                       # miss rate for ReadReq accesses
system.cpu.dcache.ReadReq_avg_miss_latency::.cpu.data        76715                       # average ReadReq miss latency
system.cpu.dcache.ReadReq_avg_miss_latency::total        76715                       # average ReadReq miss latency
system.cpu.dcache.ReadReq_mshr_hits::.cpu.data          166                       # number of ReadReq MSHR hits
system.cpu.dcache.ReadReq_mshr_hits::total          166                       # number of ReadReq MSHR hits
system.cpu.dcache.ReadReq_mshr_misses::.cpu.data          134                       # number of ReadReq MSHR misses
system.cpu.dcache.ReadReq_mshr_misses::total          134                       # number of ReadReq MSHR misses
system.cpu.dcache.ReadReq_mshr_miss_latency::.cpu.data     11456500                       # number of ReadReq MSHR miss cycles
system.cpu.dcache.ReadReq_mshr_miss_latency::total     11456500                       # number of ReadReq MSHR miss cycles
system.cpu.dcache.ReadReq_mshr_miss_rate::.cpu.data     0.000049                       # mshr miss rate for ReadReq accesses
system.cpu.dcache.ReadReq_mshr_miss_rate::total     0.000049                       # mshr miss rate for ReadReq accesses
system.cpu.dcache.ReadReq_avg_mshr_miss_latency::.cpu.data 85496.268657                       # average ReadReq mshr miss latency
system.cpu.dcache.ReadReq_avg_mshr_miss_latency::total 85496.268657                       # average ReadReq mshr miss latency
system.cpu.dcache.WriteReq_hits::.cpu.data         5323                       # number of WriteReq hits
system.cpu.dcache.WriteReq_hits::total           5323                       # number of WriteReq hits
system.cpu.dcache.WriteReq_misses::.cpu.data      1314455                       # number of WriteReq misses
system.cpu.dcache.WriteReq_misses::total      1314455                       # number of WriteReq misses
system.cpu.dcache.WriteReq_miss_latency::.cpu.data 104368199500                       # number of WriteReq miss cycles
system.cpu.dcache.WriteReq_miss_latency::total 104368199500                       # number of WriteReq miss cycles
system.cpu.dcache.WriteReq_accesses::.cpu.data      1319778                       # number of WriteReq accesses(hits+misses)
system.cpu.dcache.WriteReq_accesses::total      1319778                       # number of WriteReq accesses(hits+misses)
system.cpu.dcache.WriteReq_miss_rate::.cpu.data     0.995967                       # miss rate for WriteReq accesses
system.cpu.dcache.WriteReq_miss_rate::total     0.995967                       # miss rate for WriteReq accesses
system.cpu.dcache.WriteReq_avg_miss_latency::.cpu.data 79400.359465                       # average WriteReq miss latency
system.cpu.dcache.WriteReq_avg_miss_latency::total 79400.359465                       # average WriteReq miss latency
system.cpu.dcache.WriteReq_mshr_hits::.cpu.data      1159746                       # number of WriteReq MSHR hits
system.cpu.dcache.WriteReq_mshr_hits::total      1159746                       # number of WriteReq MSHR hits
system.cpu.dcache.WriteReq_mshr_misses::.cpu.data       154709                       # number of WriteReq MSHR misses
system.cpu.dcache.WriteReq_mshr_misses::total       154709                       # number of WriteReq MSHR misses
system.cpu.dcache.WriteReq_mshr_miss_latency::.cpu.data  13466961500                       # number of WriteReq MSHR miss cycles
system.cpu.dcache.WriteReq_mshr_miss_latency::total  13466961500                       # number of WriteReq MSHR miss cycles
system.cpu.dcache.WriteReq_mshr_miss_rate::.cpu.data     0.117224                       # mshr miss rate for WriteReq accesses
system.cpu.dcache.WriteReq_mshr_miss_rate::total     0.117224                       # mshr miss rate for WriteReq accesses
system.cpu.dcache.WriteReq_avg_mshr_miss_latency::.cpu.data 87047.046390                       # average WriteReq mshr miss latency
system.cpu.dcache.WriteReq_avg_mshr_miss_latency::total 87047.046390                       # average WriteReq mshr miss latency
system.cpu.dcache.SoftPFReq_hits::.cpu.data           52                       # number of SoftPFReq hits
system.cpu.dcache.SoftPFReq_hits::total            52                       # number of SoftPFReq hits
system.cpu.dcache.SoftPFReq_misses::.cpu.data            4                       # number of SoftPFReq misses
system.cpu.dcache.SoftPFReq_misses::total            4                       # number of SoftPFReq misses
system.cpu.dcache.SoftPFReq_accesses::.cpu.data           56                       # number of SoftPFReq accesses(hits+misses)
system.cpu.dcache.SoftPFReq_accesses::total           56                       # number of SoftPFReq accesses(hits+misses)
system.cpu.dcache.SoftPFReq_miss_rate::.cpu.data     0.071429                       # miss rate for SoftPFReq accesses
system.cpu.dcache.SoftPFReq_miss_rate::total     0.071429                       # miss rate for SoftPFReq accesses
system.cpu.dcache.SoftPFReq_mshr_misses::.cpu.data            3                       # number of SoftPFReq MSHR misses
system.cpu.dcache.SoftPFReq_mshr_misses::total            3                       # number of SoftPFReq MSHR misses
system.cpu.dcache.SoftPFReq_mshr_miss_latency::.cpu.data       234000                       # number of SoftPFReq MSHR miss cycles
system.cpu.dcache.SoftPFReq_mshr_miss_latency::total       234000                       # number of SoftPFReq MSHR miss cycles
system.cpu.dcache.SoftPFReq_mshr_miss_rate::.cpu.data     0.053571                       # mshr miss rate for SoftPFReq accesses
system.cpu.dcache.SoftPFReq_mshr_miss_rate::total     0.053571                       # mshr miss rate for SoftPFReq accesses
system.cpu.dcache.SoftPFReq_avg_mshr_miss_latency::.cpu.data        78000                       # average SoftPFReq mshr miss latency
system.cpu.dcache.SoftPFReq_avg_mshr_miss_latency::total        78000                       # average SoftPFReq mshr miss latency
system.cpu.dcache.WriteLineReq_misses::.cpu.data            7                       # number of WriteLineReq misses
system.cpu.dcache.WriteLineReq_misses::total            7                       # number of WriteLineReq misses
system.cpu.dcache.WriteLineReq_miss_latency::.cpu.data       223500                       # number of WriteLineReq miss cycles
system.cpu.dcache.WriteLineReq_miss_latency::total       223500                       # number of WriteLineReq miss cycles
system.cpu.dcache.WriteLineReq_accesses::.cpu.data            7                       # number of WriteLineReq accesses(hits+misses)
system.cpu.dcache.WriteLineReq_accesses::total            7                       # number of WriteLineReq accesses(hits+misses)
system.cpu.dcache.WriteLineReq_miss_rate::.cpu.data            1                       # miss rate for WriteLineReq accesses
system.cpu.dcache.WriteLineReq_miss_rate::total            1                       # miss rate for WriteLineReq accesses
system.cpu.dcache.WriteLineReq_avg_miss_latency::.cpu.data 31928.571429                       # average WriteLineReq miss latency
system.cpu.dcache.WriteLineReq_avg_miss_latency::total 31928.571429                       # average WriteLineReq miss latency
system.cpu.dcache.WriteLineReq_mshr_misses::.cpu.data            7                       # number of WriteLineReq MSHR misses
system.cpu.dcache.WriteLineReq_mshr_misses::total            7                       # number of WriteLineReq MSHR misses
system.cpu.dcache.WriteLineReq_mshr_miss_latency::.cpu.data       216500                       # number of WriteLineReq MSHR miss cycles
system.cpu.dcache.WriteLineReq_mshr_miss_latency::total       216500                       # number of WriteLineReq MSHR miss cycles
system.cpu.dcache.WriteLineReq_mshr_miss_rate::.cpu.data            1                       # mshr miss rate for WriteLineReq accesses
system.cpu.dcache.WriteLineReq_mshr_miss_rate::total            1                       # mshr miss rate for WriteLineReq accesses
system.cpu.dcache.WriteLineReq_avg_mshr_miss_latency::.cpu.data 30928.571429                       # average WriteLineReq mshr miss latency
system.cpu.dcache.WriteLineReq_avg_mshr_miss_latency::total 30928.571429                       # average WriteLineReq mshr miss latency
system.cpu.dcache.LoadLockedReq_hits::.cpu.data          167                       # number of LoadLockedReq hits
system.cpu.dcache.LoadLockedReq_hits::total          167                       # number of LoadLockedReq hits
system.cpu.dcache.LoadLockedReq_misses::.cpu.data            1                       # number of LoadLockedReq misses
system.cpu.dcache.LoadLockedReq_misses::total            1                       # number of LoadLockedReq misses
system.cpu.dcache.LoadLockedReq_miss_latency::.cpu.data        87500                       # number of LoadLockedReq miss cycles
system.cpu.dcache.LoadLockedReq_miss_latency::total        87500                       # number of LoadLockedReq miss cycles
system.cpu.dcache.LoadLockedReq_accesses::.cpu.data          168                       # number of LoadLockedReq accesses(hits+misses)
system.cpu.dcache.LoadLockedReq_accesses::total          168                       # number of LoadLockedReq accesses(hits+misses)
system.cpu.dcache.LoadLockedReq_miss_rate::.cpu.data     0.005952                       # miss rate for LoadLockedReq accesses
system.cpu.dcache.LoadLockedReq_miss_rate::total     0.005952                       # miss rate for LoadLockedReq accesses
system.cpu.dcache.LoadLockedReq_avg_miss_latency::.cpu.data        87500                       # average LoadLockedReq miss latency
system.cpu.dcache.LoadLockedReq_avg_miss_latency::total        87500                       # average LoadLockedReq miss latency
system.cpu.dcache.LoadLockedReq_mshr_misses::.cpu.data            1                       # number of LoadLockedReq MSHR misses
system.cpu.dcache.LoadLockedReq_mshr_misses::total            1                       # number of LoadLockedReq MSHR misses
system.cpu.dcache.LoadLockedReq_mshr_miss_latency::.cpu.data        86500                       # number of LoadLockedReq MSHR miss cycles
system.cpu.dcache.LoadLockedReq_mshr_miss_latency::total        86500                       # number of LoadLockedReq MSHR miss cycles
system.cpu.dcache.LoadLockedReq_mshr_miss_rate::.cpu.data     0.005952                       # mshr miss rate for LoadLockedReq accesses
system.cpu.dcache.LoadLockedReq_mshr_miss_rate::total     0.005952                       # mshr miss rate for LoadLockedReq accesses
system.cpu.dcache.LoadLockedReq_avg_mshr_miss_latency::.cpu.data        86500                       # average LoadLockedReq mshr miss latency
system.cpu.dcache.LoadLockedReq_avg_mshr_miss_latency::total        86500                       # average LoadLockedReq mshr miss latency
system.cpu.dcache.StoreCondReq_hits::.cpu.data          142                       # number of StoreCondReq hits
system.cpu.dcache.StoreCondReq_hits::total          142                       # number of StoreCondReq hits
system.cpu.dcache.StoreCondReq_accesses::.cpu.data          142                       # number of StoreCondReq accesses(hits+misses)
system.cpu.dcache.StoreCondReq_accesses::total          142                       # number of StoreCondReq accesses(hits+misses)
system.cpu.dcache.power_state.pwrStateResidencyTicks::UNDEFINED   7547948500                       # Cumulative time (in ticks) in various power states
system.cpu.dcache.tags.tagsinuse           313.028401                       # Cycle average of tags in use
system.cpu.dcache.tags.total_refs             2911233                       # Total number of references to valid blocks.
system.cpu.dcache.tags.sampled_refs            154852                       # Sample count of references to valid blocks.
system.cpu.dcache.tags.avg_refs             18.800099                       # Average number of references to valid blocks.
system.cpu.dcache.tags.warmup_cycle            249500                       # Cycle when the warmup percentage was hit.
system.cpu.dcache.tags.occ_blocks::.cpu.data   313.028401                       # Average occupied blocks per requestor
system.cpu.dcache.tags.occ_percent::.cpu.data     0.305692                       # Average percentage of cache occupancy
system.cpu.dcache.tags.occ_percent::total     0.305692                       # Average percentage of cache occupancy
system.cpu.dcache.tags.occ_task_id_blocks::1024          314                       # Occupied blocks per task id
system.cpu.dcache.tags.age_task_id_blocks_1024::0           64                       # Occupied blocks per task id
system.cpu.dcache.tags.age_task_id_blocks_1024::3          250                       # Occupied blocks per task id
system.cpu.dcache.tags.occ_task_id_percent::1024     0.306641                       # Percentage of cache occupancy per task id
system.cpu.dcache.tags.tag_accesses           8297148                       # Number of tag accesses
system.cpu.dcache.tags.data_accesses          8297148                       # Number of data accesses
system.cpu.dcache.tags.power_state.pwrStateResidencyTicks::UNDEFINED   7547948500                       # Cumulative time (in ticks) in various power states
system.cpu.power_state.pwrStateResidencyTicks::ON   7547948500                       # Cumulative time (in ticks) in various power states

---------- End Simulation Statistics   ----------
