
---------- Begin Simulation Statistics ----------
final_tick                                  784217000                       # Number of ticks from beginning of simulation (restored from checkpoints and never reset)
host_inst_rate                                  95459                       # Simulator instruction rate (inst/s)
host_mem_usage                                 863828                       # Number of bytes of host memory used
host_op_rate                                    98826                       # Simulator op (including micro ops) rate (op/s)
host_seconds                                    10.48                       # Real time elapsed on the host
host_tick_rate                               74859235                       # Simulator tick rate (ticks/s)
sim_freq                                 1000000000000                       # Frequency of simulated ticks
sim_insts                                     1000005                       # Number of instructions simulated
sim_ops                                       1035288                       # Number of ops (including micro ops) simulated
sim_seconds                                  0.000784                       # Number of seconds simulated
sim_ticks                                   784217000                       # Number of ticks simulated
system.cpu.branchPred.BTBCorrect                    0                       # Number of correct BTB predictions (this stat may not work properly.
system.cpu.branchPred.BTBHitPct             98.558662                       # BTB Hit Percentage
system.cpu.branchPred.BTBHits                   71799                       # Number of BTB hits
system.cpu.branchPred.BTBLookups                72849                       # Number of BTB lookups
system.cpu.branchPred.RASInCorrect                  2                       # Number of incorrect RAS predictions.
system.cpu.branchPred.condIncorrect              1430                       # Number of conditional branches incorrect
system.cpu.branchPred.condPredicted             44215                       # Number of conditional branches predicted
system.cpu.branchPred.indirectHits                 82                       # Number of indirect target hits.
system.cpu.branchPred.indirectLookups             268                       # Number of indirect predictor lookups.
system.cpu.branchPred.indirectMisses              186                       # Number of indirect misses.
system.cpu.branchPred.lookups                  146291                       # Number of BP lookups
system.cpu.branchPred.usedRAS                   50054                       # Number of times the RAS was used to get a target.
system.cpu.branchPredindirectMispredicted           94                       # Number of mispredicted indirect branches.
system.cpu.cc_regfile_reads                     68982                       # number of cc regfile reads
system.cpu.cc_regfile_writes                    68685                       # number of cc regfile writes
system.cpu.commit.amos                              0                       # Number of atomic instructions committed
system.cpu.commit.branchMispredicts              1129                       # The number of times a branch was mispredicted
system.cpu.commit.branches                      89552                       # Number of branches committed
system.cpu.commit.bw_lim_events                 64851                       # number cycles where commit BW limit reached
system.cpu.commit.commitNonSpecStalls             169                       # The number of times commit has been forced to stall to communicate backwards
system.cpu.commit.commitSquashedInsts          512615                       # The number of squashed insts skipped by commit
system.cpu.commit.committedInsts              1000413                       # Number of instructions committed
system.cpu.commit.committedOps                1035696                       # Number of ops (including micro ops) committed
system.cpu.commit.committed_per_cycle::samples      1449598                       # Number of insts commited each cycle
system.cpu.commit.committed_per_cycle::mean     0.714471                       # Number of insts commited each cycle
system.cpu.commit.committed_per_cycle::stdev     1.814148                       # Number of insts commited each cycle
system.cpu.commit.committed_per_cycle::underflows            0      0.00%      0.00% # Number of insts commited each cycle
system.cpu.commit.committed_per_cycle::0      1078616     74.41%     74.41% # Number of insts commited each cycle
system.cpu.commit.committed_per_cycle::1       204078     14.08%     88.49% # Number of insts commited each cycle
system.cpu.commit.committed_per_cycle::2        54891      3.79%     92.27% # Number of insts commited each cycle
system.cpu.commit.committed_per_cycle::3        11989      0.83%     93.10% # Number of insts commited each cycle
system.cpu.commit.committed_per_cycle::4        20055      1.38%     94.48% # Number of insts commited each cycle
system.cpu.commit.committed_per_cycle::5         6964      0.48%     94.96% # Number of insts commited each cycle
system.cpu.commit.committed_per_cycle::6         5057      0.35%     95.31% # Number of insts commited each cycle
system.cpu.commit.committed_per_cycle::7         3097      0.21%     95.53% # Number of insts commited each cycle
system.cpu.commit.committed_per_cycle::8        64851      4.47%    100.00% # Number of insts commited each cycle
system.cpu.commit.committed_per_cycle::overflows            0      0.00%    100.00% # Number of insts commited each cycle
system.cpu.commit.committed_per_cycle::min_value            0                       # Number of insts commited each cycle
system.cpu.commit.committed_per_cycle::max_value            8                       # Number of insts commited each cycle
system.cpu.commit.committed_per_cycle::total      1449598                       # Number of insts commited each cycle
system.cpu.commit.fp_insts                          0                       # Number of committed floating point instructions.
system.cpu.commit.function_calls                30618                       # Number of function calls committed.
system.cpu.commit.int_insts                   1016144                       # Number of committed integer instructions.
system.cpu.commit.loads                        160773                       # Number of loads committed
system.cpu.commit.membars                         142                       # Number of memory barriers committed
system.cpu.commit.op_class_0::No_OpClass           35      0.00%      0.00% # Class of committed instruction
system.cpu.commit.op_class_0::IntAlu           521896     50.39%     50.39% # Class of committed instruction
system.cpu.commit.op_class_0::IntMult          158304     15.28%     65.68% # Class of committed instruction
system.cpu.commit.op_class_0::IntDiv            60283      5.82%     71.50% # Class of committed instruction
system.cpu.commit.op_class_0::FloatAdd              0      0.00%     71.50% # Class of committed instruction
system.cpu.commit.op_class_0::FloatCmp              0      0.00%     71.50% # Class of committed instruction
system.cpu.commit.op_class_0::FloatCvt              0      0.00%     71.50% # Class of committed instruction
system.cpu.commit.op_class_0::FloatMult             0      0.00%     71.50% # Class of committed instruction
system.cpu.commit.op_class_0::FloatMultAcc            0      0.00%     71.50% # Class of committed instruction
system.cpu.commit.op_class_0::FloatDiv              0      0.00%     71.50% # Class of committed instruction
system.cpu.commit.op_class_0::FloatMisc             0      0.00%     71.50% # Class of committed instruction
system.cpu.commit.op_class_0::FloatSqrt             0      0.00%     71.50% # Class of committed instruction
system.cpu.commit.op_class_0::SimdAdd              83      0.01%     71.51% # Class of committed instruction
system.cpu.commit.op_class_0::SimdAddAcc            0      0.00%     71.51% # Class of committed instruction
system.cpu.commit.op_class_0::SimdAlu             138      0.01%     71.52% # Class of committed instruction
system.cpu.commit.op_class_0::SimdCmp             140      0.01%     71.53% # Class of committed instruction
system.cpu.commit.op_class_0::SimdCvt               0      0.00%     71.53% # Class of committed instruction
system.cpu.commit.op_class_0::SimdMisc            103      0.01%     71.54% # Class of committed instruction
system.cpu.commit.op_class_0::SimdMult              0      0.00%     71.54% # Class of committed instruction
system.cpu.commit.op_class_0::SimdMultAcc            0      0.00%     71.54% # Class of committed instruction
system.cpu.commit.op_class_0::SimdShift             0      0.00%     71.54% # Class of committed instruction
system.cpu.commit.op_class_0::SimdShiftAcc            0      0.00%     71.54% # Class of committed instruction
system.cpu.commit.op_class_0::SimdDiv               0      0.00%     71.54% # Class of committed instruction
system.cpu.commit.op_class_0::SimdSqrt              0      0.00%     71.54% # Class of committed instruction
system.cpu.commit.op_class_0::SimdFloatAdd            0      0.00%     71.54% # Class of committed instruction
system.cpu.commit.op_class_0::SimdFloatAlu            0      0.00%     71.54% # Class of committed instruction
system.cpu.commit.op_class_0::SimdFloatCmp            0      0.00%     71.54% # Class of committed instruction
system.cpu.commit.op_class_0::SimdFloatCvt            0      0.00%     71.54% # Class of committed instruction
system.cpu.commit.op_class_0::SimdFloatDiv            0      0.00%     71.54% # Class of committed instruction
system.cpu.commit.op_class_0::SimdFloatMisc            0      0.00%     71.54% # Class of committed instruction
system.cpu.commit.op_class_0::SimdFloatMult            0      0.00%     71.54% # Class of committed instruction
system.cpu.commit.op_class_0::SimdFloatMultAcc            0      0.00%     71.54% # Class of committed instruction
system.cpu.commit.op_class_0::SimdFloatSqrt            0      0.00%     71.54% # Class of committed instruction
system.cpu.commit.op_class_0::SimdReduceAdd            0      0.00%     71.54% # Class of committed instruction
system.cpu.commit.op_class_0::SimdReduceAlu            0      0.00%     71.54% # Class of committed instruction
system.cpu.commit.op_class_0::SimdReduceCmp            0      0.00%     71.54% # Class of committed instruction
system.cpu.commit.op_class_0::SimdFloatReduceAdd            0      0.00%     71.54% # Class of committed instruction
system.cpu.commit.op_class_0::SimdFloatReduceCmp            0      0.00%     71.54% # Class of committed instruction
system.cpu.commit.op_class_0::SimdAes               0      0.00%     71.54% # Class of committed instruction
system.cpu.commit.op_class_0::SimdAesMix            0      0.00%     71.54% # Class of committed instruction
system.cpu.commit.op_class_0::SimdSha1Hash            0      0.00%     71.54% # Class of committed instruction
system.cpu.commit.op_class_0::SimdSha1Hash2            0      0.00%     71.54% # Class of committed instruction
system.cpu.commit.op_class_0::SimdSha256Hash            0      0.00%     71.54% # Class of committed instruction
system.cpu.commit.op_class_0::SimdSha256Hash2            0      0.00%     71.54% # Class of committed instruction
system.cpu.commit.op_class_0::SimdShaSigma2            0      0.00%     71.54% # Class of committed instruction
system.cpu.commit.op_class_0::SimdShaSigma3            0      0.00%     71.54% # Class of committed instruction
system.cpu.commit.op_class_0::SimdPredAlu            0      0.00%     71.54% # Class of committed instruction
system.cpu.commit.op_class_0::MemRead          160773     15.52%     87.07% # Class of committed instruction
system.cpu.commit.op_class_0::MemWrite         133941     12.93%    100.00% # Class of committed instruction
system.cpu.commit.op_class_0::FloatMemRead            0      0.00%    100.00% # Class of committed instruction
system.cpu.commit.op_class_0::FloatMemWrite            0      0.00%    100.00% # Class of committed instruction
system.cpu.commit.op_class_0::IprAccess             0      0.00%    100.00% # Class of committed instruction
system.cpu.commit.op_class_0::InstPrefetch            0      0.00%    100.00% # Class of committed instruction
system.cpu.commit.op_class_0::total           1035696                       # Class of committed instruction
system.cpu.commit.refs                         294714                       # Number of memory references committed
system.cpu.commit.swp_count                         0                       # Number of s/w prefetches committed
system.cpu.commit.vec_insts                      1073                       # Number of committed Vector instructions.
system.cpu.committedInsts                     1000005                       # Number of Instructions Simulated
system.cpu.committedOps                       1035288                       # Number of Ops (including micro ops) Simulated
system.cpu.cpi                               1.568427                       # CPI: Cycles Per Instruction
system.cpu.cpi_total                         1.568427                       # CPI: Total CPI of All Threads
system.cpu.decode.BlockedCycles               1096347                       # Number of cycles decode is blocked
system.cpu.decode.BranchMispred                   304                       # Number of times decode detected a branch misprediction
system.cpu.decode.BranchResolved                70464                       # Number of times decode resolved a branch
system.cpu.decode.DecodedInsts                1744976                       # Number of instructions handled by decode
system.cpu.decode.IdleCycles                   151006                       # Number of cycles decode is idle
system.cpu.decode.RunCycles                    209791                       # Number of cycles decode is running
system.cpu.decode.SquashCycles                   4961                       # Number of cycles decode is squashing
system.cpu.decode.SquashedInsts                  1026                       # Number of squashed instructions handled by decode
system.cpu.decode.UnblockCycles                 53931                       # Number of cycles decode is unblocking
system.cpu.dtb.accesses                             0                       # DTB accesses
system.cpu.dtb.align_faults                         0                       # Number of TLB faults due to alignment restrictions
system.cpu.dtb.domain_faults                        0                       # Number of TLB faults due to domain restrictions
system.cpu.dtb.flush_entries                        0                       # Number of entries that have been flushed from TLB
system.cpu.dtb.flush_tlb                            0                       # Number of times complete TLB was flushed
system.cpu.dtb.flush_tlb_asid                       0                       # Number of times TLB was flushed by ASID
system.cpu.dtb.flush_tlb_mva                        0                       # Number of times TLB was flushed by MVA
system.cpu.dtb.flush_tlb_mva_asid                   0                       # Number of times TLB was flushed by MVA & ASID
system.cpu.dtb.hits                                 0                       # DTB hits
system.cpu.dtb.inst_accesses                        0                       # ITB inst accesses
system.cpu.dtb.inst_hits                            0                       # ITB inst hits
system.cpu.dtb.inst_misses                          0                       # ITB inst misses
system.cpu.dtb.misses                               0                       # DTB misses
system.cpu.dtb.perms_faults                         0                       # Number of TLB faults due to permissions restrictions
system.cpu.dtb.prefetch_faults                      0                       # Number of TLB faults due to prefetch
system.cpu.dtb.read_accesses                        0                       # DTB read accesses
system.cpu.dtb.read_hits                            0                       # DTB read hits
system.cpu.dtb.read_misses                          0                       # DTB read misses
system.cpu.dtb.stage2_mmu.stage2_tlb.accesses            0                       # DTB accesses
system.cpu.dtb.stage2_mmu.stage2_tlb.align_faults            0                       # Number of TLB faults due to alignment restrictions
system.cpu.dtb.stage2_mmu.stage2_tlb.domain_faults            0                       # Number of TLB faults due to domain restrictions
system.cpu.dtb.stage2_mmu.stage2_tlb.flush_entries            0                       # Number of entries that have been flushed from TLB
system.cpu.dtb.stage2_mmu.stage2_tlb.flush_tlb            0                       # Number of times complete TLB was flushed
system.cpu.dtb.stage2_mmu.stage2_tlb.flush_tlb_asid            0                       # Number of times TLB was flushed by ASID
system.cpu.dtb.stage2_mmu.stage2_tlb.flush_tlb_mva            0                       # Number of times TLB was flushed by MVA
system.cpu.dtb.stage2_mmu.stage2_tlb.flush_tlb_mva_asid            0                       # Number of times TLB was flushed by MVA & ASID
system.cpu.dtb.stage2_mmu.stage2_tlb.hits            0                       # DTB hits
system.cpu.dtb.stage2_mmu.stage2_tlb.inst_accesses            0                       # ITB inst accesses
system.cpu.dtb.stage2_mmu.stage2_tlb.inst_hits            0                       # ITB inst hits
system.cpu.dtb.stage2_mmu.stage2_tlb.inst_misses            0                       # ITB inst misses
system.cpu.dtb.stage2_mmu.stage2_tlb.misses            0                       # DTB misses
system.cpu.dtb.stage2_mmu.stage2_tlb.perms_faults            0                       # Number of TLB faults due to permissions restrictions
system.cpu.dtb.stage2_mmu.stage2_tlb.prefetch_faults            0                       # Number of TLB faults due to prefetch
system.cpu.dtb.stage2_mmu.stage2_tlb.read_accesses            0                       # DTB read accesses
system.cpu.dtb.stage2_mmu.stage2_tlb.read_hits            0                       # DTB read hits
system.cpu.dtb.stage2_mmu.stage2_tlb.read_misses            0                       # DTB read misses
system.cpu.dtb.stage2_mmu.stage2_tlb.walker.walkRequestOrigin_Requested::Data            0                       # Table walker requests started/completed, data/inst
system.cpu.dtb.stage2_mmu.stage2_tlb.walker.walkRequestOrigin_Requested::Inst            0                       # Table walker requests started/completed, data/inst
system.cpu.dtb.stage2_mmu.stage2_tlb.walker.walkRequestOrigin_Requested::total            0                       # Table walker requests started/completed, data/inst
system.cpu.dtb.stage2_mmu.stage2_tlb.walker.walkRequestOrigin_Completed::Data            0                       # Table walker requests started/completed, data/inst
system.cpu.dtb.stage2_mmu.stage2_tlb.walker.walkRequestOrigin_Completed::Inst            0                       # Table walker requests started/completed, data/inst
system.cpu.dtb.stage2_mmu.stage2_tlb.walker.walkRequestOrigin_Completed::total            0                       # Table walker requests started/completed, data/inst
system.cpu.dtb.stage2_mmu.stage2_tlb.walker.walkRequestOrigin::total            0                       # Table walker requests started/completed, data/inst
system.cpu.dtb.stage2_mmu.stage2_tlb.walker.walks            0                       # Table walker walks requested
system.cpu.dtb.stage2_mmu.stage2_tlb.write_accesses            0                       # DTB write accesses
system.cpu.dtb.stage2_mmu.stage2_tlb.write_hits            0                       # DTB write hits
system.cpu.dtb.stage2_mmu.stage2_tlb.write_misses            0                       # DTB write misses
system.cpu.dtb.walker.walkRequestOrigin_Requested::Data            0                       # Table walker requests started/completed, data/inst
system.cpu.dtb.walker.walkRequestOrigin_Requested::Inst            0                       # Table walker requests started/completed, data/inst
system.cpu.dtb.walker.walkRequestOrigin_Requested::total            0                       # Table walker requests started/completed, data/inst
system.cpu.dtb.walker.walkRequestOrigin_Completed::Data            0                       # Table walker requests started/completed, data/inst
system.cpu.dtb.walker.walkRequestOrigin_Completed::Inst            0                       # Table walker requests started/completed, data/inst
system.cpu.dtb.walker.walkRequestOrigin_Completed::total            0                       # Table walker requests started/completed, data/inst
system.cpu.dtb.walker.walkRequestOrigin::total            0                       # Table walker requests started/completed, data/inst
system.cpu.dtb.walker.walks                         0                       # Table walker walks requested
system.cpu.dtb.write_accesses                       0                       # DTB write accesses
system.cpu.dtb.write_hits                           0                       # DTB write hits
system.cpu.dtb.write_misses                         0                       # DTB write misses
system.cpu.fetch.Branches                      146291                       # Number of branches that fetch encountered
system.cpu.fetch.CacheLines                    216975                       # Number of cache lines fetched
system.cpu.fetch.Cycles                       1251159                       # Number of cycles fetch has run and was not squashing or blocked
system.cpu.fetch.IcacheSquashes                  2840                       # Number of outstanding Icache misses that were squashed
system.cpu.fetch.IcacheWaitRetryStallCycles           25                       # Number of stall cycles due to full MSHR
system.cpu.fetch.Insts                        1765241                       # Number of instructions fetch has processed
system.cpu.fetch.MiscStallCycles                    4                       # Number of cycles fetch has spent waiting on interrupts, or bad addresses, or out of MSHRs
system.cpu.fetch.SquashCycles                   10524                       # Number of cycles fetch has spent squashing
system.cpu.fetch.branchRate                  0.093272                       # Number of branch fetches per cycle
system.cpu.fetch.icacheStallCycles             259586                       # Number of cycles fetch is stalled on an Icache miss
system.cpu.fetch.predictedBranches             121935                       # Number of branches that fetch has predicted taken
system.cpu.fetch.rate                        1.125479                       # Number of inst fetches per cycle
system.cpu.fetch.rateDist::samples            1516036                       # Number of instructions fetched each cycle (Total)
system.cpu.fetch.rateDist::mean              1.204493                       # Number of instructions fetched each cycle (Total)
system.cpu.fetch.rateDist::stdev             2.557589                       # Number of instructions fetched each cycle (Total)
system.cpu.fetch.rateDist::underflows               0      0.00%      0.00% # Number of instructions fetched each cycle (Total)
system.cpu.fetch.rateDist::0                  1172459     77.34%     77.34% # Number of instructions fetched each cycle (Total)
system.cpu.fetch.rateDist::1                    32189      2.12%     79.46% # Number of instructions fetched each cycle (Total)
system.cpu.fetch.rateDist::2                    54866      3.62%     83.08% # Number of instructions fetched each cycle (Total)
system.cpu.fetch.rateDist::3                    22062      1.46%     84.53% # Number of instructions fetched each cycle (Total)
system.cpu.fetch.rateDist::4                    21166      1.40%     85.93% # Number of instructions fetched each cycle (Total)
system.cpu.fetch.rateDist::5                    36092      2.38%     88.31% # Number of instructions fetched each cycle (Total)
system.cpu.fetch.rateDist::6                    28026      1.85%     90.16% # Number of instructions fetched each cycle (Total)
system.cpu.fetch.rateDist::7                     8741      0.58%     90.74% # Number of instructions fetched each cycle (Total)
system.cpu.fetch.rateDist::8                   140435      9.26%    100.00% # Number of instructions fetched each cycle (Total)
system.cpu.fetch.rateDist::overflows                0      0.00%    100.00% # Number of instructions fetched each cycle (Total)
system.cpu.fetch.rateDist::min_value                0                       # Number of instructions fetched each cycle (Total)
system.cpu.fetch.rateDist::max_value                8                       # Number of instructions fetched each cycle (Total)
system.cpu.fetch.rateDist::total              1516036                       # Number of instructions fetched each cycle (Total)
system.cpu.icache.prefetcher.num_hwpf_issued         6830                       # number of hwpf issued
system.cpu.icache.prefetcher.pfBufferHit        23290                       # number of redundant prefetches already in prefetch queue
system.cpu.icache.prefetcher.pfIdentified        34433                       # number of prefetch candidates identified
system.cpu.icache.prefetcher.pfInCache              0                       # number of redundant prefetches already in cache/mshr dropped
system.cpu.icache.prefetcher.pfRemovedFull         3249                       # number of prefetches dropped due to prefetch queue size
system.cpu.icache.prefetcher.pfSpanPage        371282                       # number of prefetches that crossed the page
system.cpu.idleCycles                           52399                       # Total number of cycles that the CPU has spent unscheduled due to idling
system.cpu.iew.branchMispredicts                 1219                       # Number of branch mispredicts detected at execute
system.cpu.iew.exec_branches                   132494                       # Number of branches executed
system.cpu.iew.exec_nop                           447                       # number of nop insts executed
system.cpu.iew.exec_rate                     0.965941                       # Inst execution rate
system.cpu.iew.exec_refs                       472446                       # number of memory reference insts executed
system.cpu.iew.exec_stores                     198374                       # Number of stores executed
system.cpu.iew.exec_swp                             0                       # number of swp insts executed
system.cpu.iew.iewBlockCycles                  296970                       # Number of cycles IEW is blocking
system.cpu.iew.iewDispLoadInsts                275695                       # Number of dispatched load instructions
system.cpu.iew.iewDispNonSpecInsts                210                       # Number of dispatched non-speculative instructions
system.cpu.iew.iewDispSquashedInsts               341                       # Number of squashed instructions skipped by dispatch
system.cpu.iew.iewDispStoreInsts               227225                       # Number of dispatched store instructions
system.cpu.iew.iewDispatchedInsts             1697737                       # Number of instructions dispatched to IQ
system.cpu.iew.iewExecLoadInsts                274072                       # Number of load instructions executed
system.cpu.iew.iewExecSquashedInsts              7659                       # Number of squashed instructions skipped in execute
system.cpu.iew.iewExecutedInsts               1515016                       # Number of executed instructions
system.cpu.iew.iewIQFullEvents                  20845                       # Number of times the IQ has become full, causing a stall
system.cpu.iew.iewIdleCycles                        0                       # Number of cycles IEW is idle
system.cpu.iew.iewLSQFullEvents                 80796                       # Number of times the LSQ has become full, causing a stall
system.cpu.iew.iewSquashCycles                   4961                       # Number of cycles IEW is squashing
system.cpu.iew.iewUnblockCycles                104525                       # Number of cycles IEW is unblocking
system.cpu.iew.lsq.thread0.blockedLoads             0                       # Number of blocked loads due to partial load-store forwarding
system.cpu.iew.lsq.thread0.cacheBlocked          3594                       # Number of times an access to memory failed due to the cache being blocked
system.cpu.iew.lsq.thread0.forwLoads              132                       # Number of loads that had data forwarded from stores
system.cpu.iew.lsq.thread0.ignoredResponses           10                       # Number of memory responses ignored because the instruction is squashed
system.cpu.iew.lsq.thread0.invAddrLoads             0                       # Number of loads ignored due to an invalid address
system.cpu.iew.lsq.thread0.invAddrSwpfs             0                       # Number of software prefetches ignored due to an invalid address
system.cpu.iew.lsq.thread0.memOrderViolation           28                       # Number of memory ordering violations
system.cpu.iew.lsq.thread0.rescheduledLoads          103                       # Number of loads that were rescheduled
system.cpu.iew.lsq.thread0.squashedLoads       114912                       # Number of loads squashed
system.cpu.iew.lsq.thread0.squashedStores        93268                       # Number of stores squashed
system.cpu.iew.memOrderViolationEvents             28                       # Number of memory order violations
system.cpu.iew.predictedNotTakenIncorrect          732                       # Number of branches that were predicted not taken incorrectly
system.cpu.iew.predictedTakenIncorrect            487                       # Number of branches that were predicted taken incorrectly
system.cpu.iew.wb_consumers                   1606433                       # num instructions consuming a value
system.cpu.iew.wb_count                       1449421                       # cumulative count of insts written-back
system.cpu.iew.wb_fanout                     0.645462                       # average fanout of values written-back
system.cpu.iew.wb_producers                   1036891                       # num instructions producing a value
system.cpu.iew.wb_rate                       0.924119                       # insts written-back per cycle
system.cpu.iew.wb_sent                        1513758                       # cumulative count of insts sent to commit
system.cpu.int_regfile_reads                  2246872                       # number of integer regfile reads
system.cpu.int_regfile_writes                 1255858                       # number of integer regfile writes
system.cpu.ipc                               0.637581                       # IPC: Instructions Per Cycle
system.cpu.ipc_total                         0.637581                       # IPC: Total IPC of All Threads
system.cpu.iq.FU_type_0::No_OpClass                38      0.00%      0.00% # Type of FU issued
system.cpu.iq.FU_type_0::IntAlu                780887     51.28%     51.29% # Type of FU issued
system.cpu.iq.FU_type_0::IntMult               199634     13.11%     64.40% # Type of FU issued
system.cpu.iq.FU_type_0::IntDiv                 67868      4.46%     68.85% # Type of FU issued
system.cpu.iq.FU_type_0::FloatAdd                   0      0.00%     68.85% # Type of FU issued
system.cpu.iq.FU_type_0::FloatCmp                   0      0.00%     68.85% # Type of FU issued
system.cpu.iq.FU_type_0::FloatCvt                   0      0.00%     68.85% # Type of FU issued
system.cpu.iq.FU_type_0::FloatMult                  0      0.00%     68.85% # Type of FU issued
system.cpu.iq.FU_type_0::FloatMultAcc               0      0.00%     68.85% # Type of FU issued
system.cpu.iq.FU_type_0::FloatDiv                   0      0.00%     68.85% # Type of FU issued
system.cpu.iq.FU_type_0::FloatMisc                  0      0.00%     68.85% # Type of FU issued
system.cpu.iq.FU_type_0::FloatSqrt                  0      0.00%     68.85% # Type of FU issued
system.cpu.iq.FU_type_0::SimdAdd                   90      0.01%     68.86% # Type of FU issued
system.cpu.iq.FU_type_0::SimdAddAcc                 0      0.00%     68.86% # Type of FU issued
system.cpu.iq.FU_type_0::SimdAlu                  152      0.01%     68.87% # Type of FU issued
system.cpu.iq.FU_type_0::SimdCmp                  152      0.01%     68.88% # Type of FU issued
system.cpu.iq.FU_type_0::SimdCvt                    0      0.00%     68.88% # Type of FU issued
system.cpu.iq.FU_type_0::SimdMisc                 107      0.01%     68.89% # Type of FU issued
system.cpu.iq.FU_type_0::SimdMult                   0      0.00%     68.89% # Type of FU issued
system.cpu.iq.FU_type_0::SimdMultAcc                0      0.00%     68.89% # Type of FU issued
system.cpu.iq.FU_type_0::SimdShift                  0      0.00%     68.89% # Type of FU issued
system.cpu.iq.FU_type_0::SimdShiftAcc               0      0.00%     68.89% # Type of FU issued
system.cpu.iq.FU_type_0::SimdDiv                    0      0.00%     68.89% # Type of FU issued
system.cpu.iq.FU_type_0::SimdSqrt                   0      0.00%     68.89% # Type of FU issued
system.cpu.iq.FU_type_0::SimdFloatAdd               0      0.00%     68.89% # Type of FU issued
system.cpu.iq.FU_type_0::SimdFloatAlu               0      0.00%     68.89% # Type of FU issued
system.cpu.iq.FU_type_0::SimdFloatCmp               0      0.00%     68.89% # Type of FU issued
system.cpu.iq.FU_type_0::SimdFloatCvt               0      0.00%     68.89% # Type of FU issued
system.cpu.iq.FU_type_0::SimdFloatDiv               0      0.00%     68.89% # Type of FU issued
system.cpu.iq.FU_type_0::SimdFloatMisc              0      0.00%     68.89% # Type of FU issued
system.cpu.iq.FU_type_0::SimdFloatMult              0      0.00%     68.89% # Type of FU issued
system.cpu.iq.FU_type_0::SimdFloatMultAcc            0      0.00%     68.89% # Type of FU issued
system.cpu.iq.FU_type_0::SimdFloatSqrt              0      0.00%     68.89% # Type of FU issued
system.cpu.iq.FU_type_0::SimdReduceAdd              0      0.00%     68.89% # Type of FU issued
system.cpu.iq.FU_type_0::SimdReduceAlu              0      0.00%     68.89% # Type of FU issued
system.cpu.iq.FU_type_0::SimdReduceCmp              0      0.00%     68.89% # Type of FU issued
system.cpu.iq.FU_type_0::SimdFloatReduceAdd            0      0.00%     68.89% # Type of FU issued
system.cpu.iq.FU_type_0::SimdFloatReduceCmp            0      0.00%     68.89% # Type of FU issued
system.cpu.iq.FU_type_0::SimdAes                    0      0.00%     68.89% # Type of FU issued
system.cpu.iq.FU_type_0::SimdAesMix                 0      0.00%     68.89% # Type of FU issued
system.cpu.iq.FU_type_0::SimdSha1Hash               0      0.00%     68.89% # Type of FU issued
system.cpu.iq.FU_type_0::SimdSha1Hash2              0      0.00%     68.89% # Type of FU issued
system.cpu.iq.FU_type_0::SimdSha256Hash             0      0.00%     68.89% # Type of FU issued
system.cpu.iq.FU_type_0::SimdSha256Hash2            0      0.00%     68.89% # Type of FU issued
system.cpu.iq.FU_type_0::SimdShaSigma2              0      0.00%     68.89% # Type of FU issued
system.cpu.iq.FU_type_0::SimdShaSigma3              0      0.00%     68.89% # Type of FU issued
system.cpu.iq.FU_type_0::SimdPredAlu                0      0.00%     68.89% # Type of FU issued
system.cpu.iq.FU_type_0::MemRead               275207     18.07%     86.96% # Type of FU issued
system.cpu.iq.FU_type_0::MemWrite              198543     13.04%    100.00% # Type of FU issued
system.cpu.iq.FU_type_0::FloatMemRead               0      0.00%    100.00% # Type of FU issued
system.cpu.iq.FU_type_0::FloatMemWrite              0      0.00%    100.00% # Type of FU issued
system.cpu.iq.FU_type_0::IprAccess                  0      0.00%    100.00% # Type of FU issued
system.cpu.iq.FU_type_0::InstPrefetch               0      0.00%    100.00% # Type of FU issued
system.cpu.iq.FU_type_0::total                1522678                       # Type of FU issued
system.cpu.iq.fp_alu_accesses                       0                       # Number of floating point alu accesses
system.cpu.iq.fp_inst_queue_reads                   0                       # Number of floating instruction queue reads
system.cpu.iq.fp_inst_queue_wakeup_accesses            0                       # Number of floating instruction queue wakeup accesses
system.cpu.iq.fp_inst_queue_writes                  0                       # Number of floating instruction queue writes
system.cpu.iq.fu_busy_cnt                     1183554                       # FU busy when requested
system.cpu.iq.fu_busy_rate                   0.777284                       # FU busy rate (busy events/executed inst)
system.cpu.iq.fu_full::No_OpClass                   0      0.00%      0.00% # attempts to use FU when none available
system.cpu.iq.fu_full::IntAlu                    7061      0.60%      0.60% # attempts to use FU when none available
system.cpu.iq.fu_full::IntMult                 616202     52.06%     52.66% # attempts to use FU when none available
system.cpu.iq.fu_full::IntDiv                  541005     45.71%     98.37% # attempts to use FU when none available
system.cpu.iq.fu_full::FloatAdd                     0      0.00%     98.37% # attempts to use FU when none available
system.cpu.iq.fu_full::FloatCmp                     0      0.00%     98.37% # attempts to use FU when none available
system.cpu.iq.fu_full::FloatCvt                     0      0.00%     98.37% # attempts to use FU when none available
system.cpu.iq.fu_full::FloatMult                    0      0.00%     98.37% # attempts to use FU when none available
system.cpu.iq.fu_full::FloatMultAcc                 0      0.00%     98.37% # attempts to use FU when none available
system.cpu.iq.fu_full::FloatDiv                     0      0.00%     98.37% # attempts to use FU when none available
system.cpu.iq.fu_full::FloatMisc                    0      0.00%     98.37% # attempts to use FU when none available
system.cpu.iq.fu_full::FloatSqrt                    0      0.00%     98.37% # attempts to use FU when none available
system.cpu.iq.fu_full::SimdAdd                      0      0.00%     98.37% # attempts to use FU when none available
system.cpu.iq.fu_full::SimdAddAcc                   0      0.00%     98.37% # attempts to use FU when none available
system.cpu.iq.fu_full::SimdAlu                      1      0.00%     98.37% # attempts to use FU when none available
system.cpu.iq.fu_full::SimdCmp                      4      0.00%     98.37% # attempts to use FU when none available
system.cpu.iq.fu_full::SimdCvt                      0      0.00%     98.37% # attempts to use FU when none available
system.cpu.iq.fu_full::SimdMisc                     0      0.00%     98.37% # attempts to use FU when none available
system.cpu.iq.fu_full::SimdMult                     0      0.00%     98.37% # attempts to use FU when none available
system.cpu.iq.fu_full::SimdMultAcc                  0      0.00%     98.37% # attempts to use FU when none available
system.cpu.iq.fu_full::SimdShift                    0      0.00%     98.37% # attempts to use FU when none available
system.cpu.iq.fu_full::SimdShiftAcc                 0      0.00%     98.37% # attempts to use FU when none available
system.cpu.iq.fu_full::SimdDiv                      0      0.00%     98.37% # attempts to use FU when none available
system.cpu.iq.fu_full::SimdSqrt                     0      0.00%     98.37% # attempts to use FU when none available
system.cpu.iq.fu_full::SimdFloatAdd                 0      0.00%     98.37% # attempts to use FU when none available
system.cpu.iq.fu_full::SimdFloatAlu                 0      0.00%     98.37% # attempts to use FU when none available
system.cpu.iq.fu_full::SimdFloatCmp                 0      0.00%     98.37% # attempts to use FU when none available
system.cpu.iq.fu_full::SimdFloatCvt                 0      0.00%     98.37% # attempts to use FU when none available
system.cpu.iq.fu_full::SimdFloatDiv                 0      0.00%     98.37% # attempts to use FU when none available
system.cpu.iq.fu_full::SimdFloatMisc                0      0.00%     98.37% # attempts to use FU when none available
system.cpu.iq.fu_full::SimdFloatMult                0      0.00%     98.37% # attempts to use FU when none available
system.cpu.iq.fu_full::SimdFloatMultAcc             0      0.00%     98.37% # attempts to use FU when none available
system.cpu.iq.fu_full::SimdFloatSqrt                0      0.00%     98.37% # attempts to use FU when none available
system.cpu.iq.fu_full::SimdReduceAdd                0      0.00%     98.37% # attempts to use FU when none available
system.cpu.iq.fu_full::SimdReduceAlu                0      0.00%     98.37% # attempts to use FU when none available
system.cpu.iq.fu_full::SimdReduceCmp                0      0.00%     98.37% # attempts to use FU when none available
system.cpu.iq.fu_full::SimdFloatReduceAdd            0      0.00%     98.37% # attempts to use FU when none available
system.cpu.iq.fu_full::SimdFloatReduceCmp            0      0.00%     98.37% # attempts to use FU when none available
system.cpu.iq.fu_full::SimdAes                      0      0.00%     98.37% # attempts to use FU when none available
system.cpu.iq.fu_full::SimdAesMix                   0      0.00%     98.37% # attempts to use FU when none available
system.cpu.iq.fu_full::SimdSha1Hash                 0      0.00%     98.37% # attempts to use FU when none available
system.cpu.iq.fu_full::SimdSha1Hash2                0      0.00%     98.37% # attempts to use FU when none available
system.cpu.iq.fu_full::SimdSha256Hash               0      0.00%     98.37% # attempts to use FU when none available
system.cpu.iq.fu_full::SimdSha256Hash2              0      0.00%     98.37% # attempts to use FU when none available
system.cpu.iq.fu_full::SimdShaSigma2                0      0.00%     98.37% # attempts to use FU when none available
system.cpu.iq.fu_full::SimdShaSigma3                0      0.00%     98.37% # attempts to use FU when none available
system.cpu.iq.fu_full::SimdPredAlu                  0      0.00%     98.37% # attempts to use FU when none available
system.cpu.iq.fu_full::MemRead                  11367      0.96%     99.33% # attempts to use FU when none available
system.cpu.iq.fu_full::MemWrite                  7914      0.67%    100.00% # attempts to use FU when none available
system.cpu.iq.fu_full::FloatMemRead                 0      0.00%    100.00% # attempts to use FU when none available
system.cpu.iq.fu_full::FloatMemWrite                0      0.00%    100.00% # attempts to use FU when none available
system.cpu.iq.fu_full::IprAccess                    0      0.00%    100.00% # attempts to use FU when none available
system.cpu.iq.fu_full::InstPrefetch                 0      0.00%    100.00% # attempts to use FU when none available
system.cpu.iq.int_alu_accesses                2704897                       # Number of integer alu accesses
system.cpu.iq.int_inst_queue_reads            5768841                       # Number of integer instruction queue reads
system.cpu.iq.int_inst_queue_wakeup_accesses      1448274                       # Number of integer instruction queue wakeup accesses
system.cpu.iq.int_inst_queue_writes           2357692                       # Number of integer instruction queue writes
system.cpu.iq.iqInstsAdded                    1697080                       # Number of instructions added to the IQ (excludes non-spec)
system.cpu.iq.iqInstsIssued                   1522678                       # Number of instructions issued
system.cpu.iq.iqNonSpecInstsAdded                 210                       # Number of non-speculative instructions added to the IQ
system.cpu.iq.iqSquashedInstsExamined          661935                       # Number of squashed instructions iterated over during squash; mainly for profiling
system.cpu.iq.iqSquashedInstsIssued             26424                       # Number of squashed instructions issued
system.cpu.iq.iqSquashedNonSpecRemoved             41                       # Number of squashed non-spec instructions that were removed
system.cpu.iq.iqSquashedOperandsExamined       507849                       # Number of squashed operands that are examined and possibly removed from graph
system.cpu.iq.issued_per_cycle::samples       1516036                       # Number of insts issued each cycle
system.cpu.iq.issued_per_cycle::mean         1.004381                       # Number of insts issued each cycle
system.cpu.iq.issued_per_cycle::stdev        1.610757                       # Number of insts issued each cycle
system.cpu.iq.issued_per_cycle::underflows            0      0.00%      0.00% # Number of insts issued each cycle
system.cpu.iq.issued_per_cycle::0              897478     59.20%     59.20% # Number of insts issued each cycle
system.cpu.iq.issued_per_cycle::1              224042     14.78%     73.98% # Number of insts issued each cycle
system.cpu.iq.issued_per_cycle::2              178747     11.79%     85.77% # Number of insts issued each cycle
system.cpu.iq.issued_per_cycle::3               79965      5.27%     91.04% # Number of insts issued each cycle
system.cpu.iq.issued_per_cycle::4               51749      3.41%     94.46% # Number of insts issued each cycle
system.cpu.iq.issued_per_cycle::5               38301      2.53%     96.98% # Number of insts issued each cycle
system.cpu.iq.issued_per_cycle::6               19784      1.30%     98.29% # Number of insts issued each cycle
system.cpu.iq.issued_per_cycle::7               23718      1.56%     99.85% # Number of insts issued each cycle
system.cpu.iq.issued_per_cycle::8                2252      0.15%    100.00% # Number of insts issued each cycle
system.cpu.iq.issued_per_cycle::overflows            0      0.00%    100.00% # Number of insts issued each cycle
system.cpu.iq.issued_per_cycle::min_value            0                       # Number of insts issued each cycle
system.cpu.iq.issued_per_cycle::max_value            8                       # Number of insts issued each cycle
system.cpu.iq.issued_per_cycle::total         1516036                       # Number of insts issued each cycle
system.cpu.iq.rate                           0.970826                       # Inst issue rate
system.cpu.iq.vec_alu_accesses                   1297                       # Number of vector alu accesses
system.cpu.iq.vec_inst_queue_reads               2526                       # Number of vector instruction queue reads
system.cpu.iq.vec_inst_queue_wakeup_accesses         1147                       # Number of vector instruction queue wakeup accesses
system.cpu.iq.vec_inst_queue_writes              1559                       # Number of vector instruction queue writes
system.cpu.itb.accesses                             0                       # DTB accesses
system.cpu.itb.align_faults                         0                       # Number of TLB faults due to alignment restrictions
system.cpu.itb.domain_faults                        0                       # Number of TLB faults due to domain restrictions
system.cpu.itb.flush_entries                        0                       # Number of entries that have been flushed from TLB
system.cpu.itb.flush_tlb                            0                       # Number of times complete TLB was flushed
system.cpu.itb.flush_tlb_asid                       0                       # Number of times TLB was flushed by ASID
system.cpu.itb.flush_tlb_mva                        0                       # Number of times TLB was flushed by MVA
system.cpu.itb.flush_tlb_mva_asid                   0                       # Number of times TLB was flushed by MVA & ASID
system.cpu.itb.hits                                 0                       # DTB hits
system.cpu.itb.inst_accesses                        0                       # ITB inst accesses
system.cpu.itb.inst_hits                            0                       # ITB inst hits
system.cpu.itb.inst_misses                          0                       # ITB inst misses
system.cpu.itb.misses                               0                       # DTB misses
system.cpu.itb.perms_faults                         0                       # Number of TLB faults due to permissions restrictions
system.cpu.itb.prefetch_faults                      0                       # Number of TLB faults due to prefetch
system.cpu.itb.read_accesses                        0                       # DTB read accesses
system.cpu.itb.read_hits                            0                       # DTB read hits
system.cpu.itb.read_misses                          0                       # DTB read misses
system.cpu.itb.stage2_mmu.stage2_tlb.accesses            0                       # DTB accesses
system.cpu.itb.stage2_mmu.stage2_tlb.align_faults            0                       # Number of TLB faults due to alignment restrictions
system.cpu.itb.stage2_mmu.stage2_tlb.domain_faults            0                       # Number of TLB faults due to domain restrictions
system.cpu.itb.stage2_mmu.stage2_tlb.flush_entries            0                       # Number of entries that have been flushed from TLB
system.cpu.itb.stage2_mmu.stage2_tlb.flush_tlb            0                       # Number of times complete TLB was flushed
system.cpu.itb.stage2_mmu.stage2_tlb.flush_tlb_asid            0                       # Number of times TLB was flushed by ASID
system.cpu.itb.stage2_mmu.stage2_tlb.flush_tlb_mva            0                       # Number of times TLB was flushed by MVA
system.cpu.itb.stage2_mmu.stage2_tlb.flush_tlb_mva_asid            0                       # Number of times TLB was flushed by MVA & ASID
system.cpu.itb.stage2_mmu.stage2_tlb.hits            0                       # DTB hits
system.cpu.itb.stage2_mmu.stage2_tlb.inst_accesses            0                       # ITB inst accesses
system.cpu.itb.stage2_mmu.stage2_tlb.inst_hits            0                       # ITB inst hits
system.cpu.itb.stage2_mmu.stage2_tlb.inst_misses            0                       # ITB inst misses
system.cpu.itb.stage2_mmu.stage2_tlb.misses            0                       # DTB misses
system.cpu.itb.stage2_mmu.stage2_tlb.perms_faults            0                       # Number of TLB faults due to permissions restrictions
system.cpu.itb.stage2_mmu.stage2_tlb.prefetch_faults            0                       # Number of TLB faults due to prefetch
system.cpu.itb.stage2_mmu.stage2_tlb.read_accesses            0                       # DTB read accesses
system.cpu.itb.stage2_mmu.stage2_tlb.read_hits            0                       # DTB read hits
system.cpu.itb.stage2_mmu.stage2_tlb.read_misses            0                       # DTB read misses
system.cpu.itb.stage2_mmu.stage2_tlb.walker.walkRequestOrigin_Requested::Data            0                       # Table walker requests started/completed, data/inst
system.cpu.itb.stage2_mmu.stage2_tlb.walker.walkRequestOrigin_Requested::Inst            0                       # Table walker requests started/completed, data/inst
system.cpu.itb.stage2_mmu.stage2_tlb.walker.walkRequestOrigin_Requested::total            0                       # Table walker requests started/completed, data/inst
system.cpu.itb.stage2_mmu.stage2_tlb.walker.walkRequestOrigin_Completed::Data            0                       # Table walker requests started/completed, data/inst
system.cpu.itb.stage2_mmu.stage2_tlb.walker.walkRequestOrigin_Completed::Inst            0                       # Table walker requests started/completed, data/inst
system.cpu.itb.stage2_mmu.stage2_tlb.walker.walkRequestOrigin_Completed::total            0                       # Table walker requests started/completed, data/inst
system.cpu.itb.stage2_mmu.stage2_tlb.walker.walkRequestOrigin::total            0                       # Table walker requests started/completed, data/inst
system.cpu.itb.stage2_mmu.stage2_tlb.walker.walks            0                       # Table walker walks requested
system.cpu.itb.stage2_mmu.stage2_tlb.write_accesses            0                       # DTB write accesses
system.cpu.itb.stage2_mmu.stage2_tlb.write_hits            0                       # DTB write hits
system.cpu.itb.stage2_mmu.stage2_tlb.write_misses            0                       # DTB write misses
system.cpu.itb.walker.walkRequestOrigin_Requested::Data            0                       # Table walker requests started/completed, data/inst
system.cpu.itb.walker.walkRequestOrigin_Requested::Inst            0                       # Table walker requests started/completed, data/inst
system.cpu.itb.walker.walkRequestOrigin_Requested::total            0                       # Table walker requests started/completed, data/inst
system.cpu.itb.walker.walkRequestOrigin_Completed::Data            0                       # Table walker requests started/completed, data/inst
system.cpu.itb.walker.walkRequestOrigin_Completed::Inst            0                       # Table walker requests started/completed, data/inst
system.cpu.itb.walker.walkRequestOrigin_Completed::total            0                       # Table walker requests started/completed, data/inst
system.cpu.itb.walker.walkRequestOrigin::total            0                       # Table walker requests started/completed, data/inst
system.cpu.itb.walker.walks                         0                       # Table walker walks requested
system.cpu.itb.write_accesses                       0                       # DTB write accesses
system.cpu.itb.write_hits                           0                       # DTB write hits
system.cpu.itb.write_misses                         0                       # DTB write misses
system.cpu.memDep0.conflictingLoads               190                       # Number of conflicting loads.
system.cpu.memDep0.conflictingStores              207                       # Number of conflicting stores.
system.cpu.memDep0.insertedLoads               275695                       # Number of loads inserted to the mem dependence unit.
system.cpu.memDep0.insertedStores              227225                       # Number of stores inserted to the mem dependence unit.
system.cpu.misc_regfile_reads                  924110                       # number of misc regfile reads
system.cpu.misc_regfile_writes                    569                       # number of misc regfile writes
system.cpu.numCycles                          1568435                       # number of cpu cycles simulated
system.cpu.numWorkItemsCompleted                    0                       # number of work items this cpu completed
system.cpu.numWorkItemsStarted                      0                       # number of work items this cpu started
system.cpu.rename.BlockCycles                  440524                       # Number of cycles rename is blocking
system.cpu.rename.CommittedMaps                914731                       # Number of HB maps that are committed
system.cpu.rename.IQFullEvents                 134894                       # Number of times rename has blocked due to IQ full
system.cpu.rename.IdleCycles                   162009                       # Number of cycles rename is idle
system.cpu.rename.ROBFullEvents                    13                       # Number of times rename has blocked due to ROB full
system.cpu.rename.RenameLookups               2728561                       # Number of register rename lookups that rename has made
system.cpu.rename.RenamedInsts                1717804                       # Number of instructions processed by rename
system.cpu.rename.RenamedOperands             1503507                       # Number of destination operands rename has renamed
system.cpu.rename.RunCycles                    246949                       # Number of cycles rename is running
system.cpu.rename.SQFullEvents                 564280                       # Number of times rename has blocked due to SQ full
system.cpu.rename.SquashCycles                   4961                       # Number of cycles rename is squashing
system.cpu.rename.UnblockCycles                649537                       # Number of cycles rename is unblocking
system.cpu.rename.UndoneMaps                   588719                       # Number of HB maps that are undone due to squashing
system.cpu.rename.int_rename_lookups          2640476                       # Number of integer rename lookups
system.cpu.rename.serializeStallCycles          12056                       # count of cycles rename stalled for serializing inst
system.cpu.rename.serializingInsts                351                       # count of serializing insts renamed
system.cpu.rename.skidInsts                    205870                       # count of insts added to the skid buffer
system.cpu.rename.tempSerializingInsts            220                       # count of temporary serializing insts renamed
system.cpu.rename.vec_rename_lookups             1663                       # Number of vector rename lookups
system.cpu.rob.rob_reads                      2883463                       # The number of ROB reads
system.cpu.rob.rob_writes                     3163138                       # The number of ROB writes
system.cpu.timesIdled                            1329                       # Number of times that the entire CPU went into an idle state and unscheduled itself
system.cpu.vec_regfile_reads                     1403                       # number of vector regfile reads
system.cpu.vec_regfile_writes                     613                       # number of vector regfile writes
system.cpu.workload.numSyscalls                    26                       # Number of system calls
system.membus.snoop_filter.hit_multi_requests            0                       # Number of requests hitting in the snoop filter with multiple (>1) holders of the requested data.
system.membus.snoop_filter.hit_multi_snoops            0                       # Number of snoops hitting in the snoop filter with multiple (>1) holders of the requested data.
system.membus.snoop_filter.hit_single_requests        13083                       # Number of requests hitting in the snoop filter with a single holder of the requested data.
system.membus.snoop_filter.hit_single_snoops            0                       # Number of snoops hitting in the snoop filter with a single holder of the requested data.
system.membus.snoop_filter.tot_requests         29040                       # Total number of requests made to the snoop filter.
system.membus.snoop_filter.tot_snoops               0                       # Total number of snoops made to the snoop filter.
system.tol2bus.snoop_filter.hit_multi_requests           14                       # Number of requests hitting in the snoop filter with multiple (>1) holders of the requested data.
system.tol2bus.snoop_filter.hit_multi_snoops            0                       # Number of snoops hitting in the snoop filter with multiple (>1) holders of the requested data.
system.tol2bus.snoop_filter.hit_single_requests        19674                       # Number of requests hitting in the snoop filter with a single holder of the requested data.
system.tol2bus.snoop_filter.hit_single_snoops            4                       # Number of snoops hitting in the snoop filter with a single holder of the requested data.
system.tol2bus.snoop_filter.tot_requests        39728                       # Total number of requests made to the snoop filter.
system.tol2bus.snoop_filter.tot_snoops              4                       # Total number of snoops made to the snoop filter.
system.membus.trans_dist::ReadResp                746                       # Transaction distribution
system.membus.trans_dist::WritebackDirty        13041                       # Transaction distribution
system.membus.trans_dist::CleanEvict               42                       # Transaction distribution
system.membus.trans_dist::ReadExReq             15204                       # Transaction distribution
system.membus.trans_dist::ReadExResp            15202                       # Transaction distribution
system.membus.trans_dist::ReadSharedReq           746                       # Transaction distribution
system.membus.trans_dist::InvalidateReq             7                       # Transaction distribution
system.membus.pkt_count_system.l2.mem_side::system.mem_ctrls.port        44988                       # Packet count per connected master and slave (bytes)
system.membus.pkt_count::total                  44988                       # Packet count per connected master and slave (bytes)
system.membus.pkt_size_system.l2.mem_side::system.mem_ctrls.port      1855296                       # Cumulative packet size per connected master and slave (bytes)
system.membus.pkt_size::total                 1855296                       # Cumulative packet size per connected master and slave (bytes)
system.membus.snoops                                0                       # Total snoops (count)
system.membus.snoopTraffic                          0                       # Total snoop traffic (bytes)
system.membus.snoop_fanout::samples             15957                       # Request fanout histogram
system.membus.snoop_fanout::mean                    0                       # Request fanout histogram
system.membus.snoop_fanout::stdev                   0                       # Request fanout histogram
system.membus.snoop_fanout::underflows              0      0.00%      0.00% # Request fanout histogram
system.membus.snoop_fanout::0                   15957    100.00%    100.00% # Request fanout histogram
system.membus.snoop_fanout::1                       0      0.00%    100.00% # Request fanout histogram
system.membus.snoop_fanout::overflows               0      0.00%    100.00% # Request fanout histogram
system.membus.snoop_fanout::min_value               0                       # Request fanout histogram
system.membus.snoop_fanout::max_value               0                       # Request fanout histogram
system.membus.snoop_fanout::total               15957                       # Request fanout histogram
system.membus.reqLayer0.occupancy            82911500                       # Layer occupancy (ticks)
system.membus.reqLayer0.utilization              10.6                       # Layer utilization (%)
system.membus.respLayer1.occupancy           83603000                       # Layer occupancy (ticks)
system.membus.respLayer1.utilization             10.7                       # Layer utilization (%)
system.membus.power_state.pwrStateResidencyTicks::UNDEFINED    784217000                       # Cumulative time (in ticks) in various power states
system.tol2bus.trans_dist::ReadResp              4842                       # Transaction distribution
system.tol2bus.trans_dist::WritebackDirty        28067                       # Transaction distribution
system.tol2bus.trans_dist::WritebackClean         4640                       # Transaction distribution
system.tol2bus.trans_dist::CleanEvict              54                       # Transaction distribution
system.tol2bus.trans_dist::ReadExReq            15205                       # Transaction distribution
system.tol2bus.trans_dist::ReadExResp           15203                       # Transaction distribution
system.tol2bus.trans_dist::ReadCleanReq          4704                       # Transaction distribution
system.tol2bus.trans_dist::ReadSharedReq          138                       # Transaction distribution
system.tol2bus.trans_dist::InvalidateReq            7                       # Transaction distribution
system.tol2bus.trans_dist::InvalidateResp            7                       # Transaction distribution
system.tol2bus.pkt_count_system.cpu.icache.mem_side::system.l2.cpu_side        14048                       # Packet count per connected master and slave (bytes)
system.tol2bus.pkt_count_system.cpu.dcache.mem_side::system.l2.cpu_side        45732                       # Packet count per connected master and slave (bytes)
system.tol2bus.pkt_count::total                 59780                       # Packet count per connected master and slave (bytes)
system.tol2bus.pkt_size_system.cpu.icache.mem_side::system.l2.cpu_side       598016                       # Cumulative packet size per connected master and slave (bytes)
system.tol2bus.pkt_size_system.cpu.dcache.mem_side::system.l2.cpu_side      1943488                       # Cumulative packet size per connected master and slave (bytes)
system.tol2bus.pkt_size::total                2541504                       # Cumulative packet size per connected master and slave (bytes)
system.tol2bus.snoops                           13087                       # Total snoops (count)
system.tol2bus.snoopTraffic                    834624                       # Total snoop traffic (bytes)
system.tol2bus.snoop_fanout::samples            33141                       # Request fanout histogram
system.tol2bus.snoop_fanout::mean            0.000543                       # Request fanout histogram
system.tol2bus.snoop_fanout::stdev           0.023299                       # Request fanout histogram
system.tol2bus.snoop_fanout::underflows             0      0.00%      0.00% # Request fanout histogram
system.tol2bus.snoop_fanout::0                  33123     99.95%     99.95% # Request fanout histogram
system.tol2bus.snoop_fanout::1                     18      0.05%    100.00% # Request fanout histogram
system.tol2bus.snoop_fanout::2                      0      0.00%    100.00% # Request fanout histogram
system.tol2bus.snoop_fanout::overflows              0      0.00%    100.00% # Request fanout histogram
system.tol2bus.snoop_fanout::min_value              0                       # Request fanout histogram
system.tol2bus.snoop_fanout::max_value              1                       # Request fanout histogram
system.tol2bus.snoop_fanout::total              33141                       # Request fanout histogram
system.tol2bus.reqLayer0.occupancy           40262309                       # Layer occupancy (ticks)
system.tol2bus.reqLayer0.utilization              5.1                       # Layer utilization (%)
system.tol2bus.respLayer1.occupancy          23016497                       # Layer occupancy (ticks)
system.tol2bus.respLayer1.utilization             2.9                       # Layer utilization (%)
system.tol2bus.respLayer0.occupancy           7056000                       # Layer occupancy (ticks)
system.tol2bus.respLayer0.utilization             0.9                       # Layer utilization (%)
system.tol2bus.power_state.pwrStateResidencyTicks::UNDEFINED    784217000                       # Cumulative time (in ticks) in various power states
system.voltage_domain.voltage                       1                       # Voltage in Volts
system.clk_domain.clock                          1000                       # Clock period in ticks
system.l2.demand_hits::.cpu.inst                 1315                       # number of demand (read+write) hits
system.l2.demand_hits::.cpu.data                    1                       # number of demand (read+write) hits
system.l2.demand_hits::.cpu.icache.prefetcher         2781                       # number of demand (read+write) hits
system.l2.demand_hits::total                     4097                       # number of demand (read+write) hits
system.l2.overall_hits::.cpu.inst                1315                       # number of overall hits
system.l2.overall_hits::.cpu.data                   1                       # number of overall hits
system.l2.overall_hits::.cpu.icache.prefetcher         2781                       # number of overall hits
system.l2.overall_hits::total                    4097                       # number of overall hits
system.l2.demand_misses::.cpu.inst                608                       # number of demand (read+write) misses
system.l2.demand_misses::.cpu.data              15342                       # number of demand (read+write) misses
system.l2.demand_misses::total                  15950                       # number of demand (read+write) misses
system.l2.overall_misses::.cpu.inst               608                       # number of overall misses
system.l2.overall_misses::.cpu.data             15342                       # number of overall misses
system.l2.overall_misses::total                 15950                       # number of overall misses
system.l2.demand_miss_latency::.cpu.inst     47417000                       # number of demand (read+write) miss cycles
system.l2.demand_miss_latency::.cpu.data   1331004500                       # number of demand (read+write) miss cycles
system.l2.demand_miss_latency::total       1378421500                       # number of demand (read+write) miss cycles
system.l2.overall_miss_latency::.cpu.inst     47417000                       # number of overall miss cycles
system.l2.overall_miss_latency::.cpu.data   1331004500                       # number of overall miss cycles
system.l2.overall_miss_latency::total      1378421500                       # number of overall miss cycles
system.l2.demand_accesses::.cpu.inst             1923                       # number of demand (read+write) accesses
system.l2.demand_accesses::.cpu.data            15343                       # number of demand (read+write) accesses
system.l2.demand_accesses::.cpu.icache.prefetcher         2781                       # number of demand (read+write) accesses
system.l2.demand_accesses::total                20047                       # number of demand (read+write) accesses
system.l2.overall_accesses::.cpu.inst            1923                       # number of overall (read+write) accesses
system.l2.overall_accesses::.cpu.data           15343                       # number of overall (read+write) accesses
system.l2.overall_accesses::.cpu.icache.prefetcher         2781                       # number of overall (read+write) accesses
system.l2.overall_accesses::total               20047                       # number of overall (read+write) accesses
system.l2.demand_miss_rate::.cpu.inst        0.316173                       # miss rate for demand accesses
system.l2.demand_miss_rate::.cpu.data        0.999935                       # miss rate for demand accesses
system.l2.demand_miss_rate::total            0.795630                       # miss rate for demand accesses
system.l2.overall_miss_rate::.cpu.inst       0.316173                       # miss rate for overall accesses
system.l2.overall_miss_rate::.cpu.data       0.999935                       # miss rate for overall accesses
system.l2.overall_miss_rate::total           0.795630                       # miss rate for overall accesses
system.l2.demand_avg_miss_latency::.cpu.inst 77988.486842                       # average overall miss latency
system.l2.demand_avg_miss_latency::.cpu.data 86755.605527                       # average overall miss latency
system.l2.demand_avg_miss_latency::total 86421.410658                       # average overall miss latency
system.l2.overall_avg_miss_latency::.cpu.inst 77988.486842                       # average overall miss latency
system.l2.overall_avg_miss_latency::.cpu.data 86755.605527                       # average overall miss latency
system.l2.overall_avg_miss_latency::total 86421.410658                       # average overall miss latency
system.l2.blocked_cycles::no_mshrs                  0                       # number of cycles access was blocked
system.l2.blocked_cycles::no_targets                0                       # number of cycles access was blocked
system.l2.blocked::no_mshrs                         0                       # number of cycles access was blocked
system.l2.blocked::no_targets                       0                       # number of cycles access was blocked
system.l2.avg_blocked_cycles::no_mshrs            nan                       # average number of cycles each access was blocked
system.l2.avg_blocked_cycles::no_targets          nan                       # average number of cycles each access was blocked
system.l2.writebacks::.writebacks               13041                       # number of writebacks
system.l2.writebacks::total                     13041                       # number of writebacks
system.l2.demand_mshr_misses::.cpu.inst           608                       # number of demand (read+write) MSHR misses
system.l2.demand_mshr_misses::.cpu.data         15342                       # number of demand (read+write) MSHR misses
system.l2.demand_mshr_misses::total             15950                       # number of demand (read+write) MSHR misses
system.l2.overall_mshr_misses::.cpu.inst          608                       # number of overall MSHR misses
system.l2.overall_mshr_misses::.cpu.data        15342                       # number of overall MSHR misses
system.l2.overall_mshr_misses::total            15950                       # number of overall MSHR misses
system.l2.demand_mshr_miss_latency::.cpu.inst     41337000                       # number of demand (read+write) MSHR miss cycles
system.l2.demand_mshr_miss_latency::.cpu.data   1177604500                       # number of demand (read+write) MSHR miss cycles
system.l2.demand_mshr_miss_latency::total   1218941500                       # number of demand (read+write) MSHR miss cycles
system.l2.overall_mshr_miss_latency::.cpu.inst     41337000                       # number of overall MSHR miss cycles
system.l2.overall_mshr_miss_latency::.cpu.data   1177604500                       # number of overall MSHR miss cycles
system.l2.overall_mshr_miss_latency::total   1218941500                       # number of overall MSHR miss cycles
system.l2.demand_mshr_miss_rate::.cpu.inst     0.316173                       # mshr miss rate for demand accesses
system.l2.demand_mshr_miss_rate::.cpu.data     0.999935                       # mshr miss rate for demand accesses
system.l2.demand_mshr_miss_rate::total       0.795630                       # mshr miss rate for demand accesses
system.l2.overall_mshr_miss_rate::.cpu.inst     0.316173                       # mshr miss rate for overall accesses
system.l2.overall_mshr_miss_rate::.cpu.data     0.999935                       # mshr miss rate for overall accesses
system.l2.overall_mshr_miss_rate::total      0.795630                       # mshr miss rate for overall accesses
system.l2.demand_avg_mshr_miss_latency::.cpu.inst 67988.486842                       # average overall mshr miss latency
system.l2.demand_avg_mshr_miss_latency::.cpu.data 76756.909138                       # average overall mshr miss latency
system.l2.demand_avg_mshr_miss_latency::total 76422.664577                       # average overall mshr miss latency
system.l2.overall_avg_mshr_miss_latency::.cpu.inst 67988.486842                       # average overall mshr miss latency
system.l2.overall_avg_mshr_miss_latency::.cpu.data 76756.909138                       # average overall mshr miss latency
system.l2.overall_avg_mshr_miss_latency::total 76422.664577                       # average overall mshr miss latency
system.l2.replacements                          13087                       # number of replacements
system.l2.WritebackDirty_hits::.writebacks        15026                       # number of WritebackDirty hits
system.l2.WritebackDirty_hits::total            15026                       # number of WritebackDirty hits
system.l2.WritebackDirty_accesses::.writebacks        15026                       # number of WritebackDirty accesses(hits+misses)
system.l2.WritebackDirty_accesses::total        15026                       # number of WritebackDirty accesses(hits+misses)
system.l2.WritebackClean_hits::.writebacks         4626                       # number of WritebackClean hits
system.l2.WritebackClean_hits::total             4626                       # number of WritebackClean hits
system.l2.WritebackClean_accesses::.writebacks         4626                       # number of WritebackClean accesses(hits+misses)
system.l2.WritebackClean_accesses::total         4626                       # number of WritebackClean accesses(hits+misses)
system.l2.ReadExReq_hits::.cpu.data                 1                       # number of ReadExReq hits
system.l2.ReadExReq_hits::total                     1                       # number of ReadExReq hits
system.l2.ReadExReq_misses::.cpu.data           15204                       # number of ReadExReq misses
system.l2.ReadExReq_misses::total               15204                       # number of ReadExReq misses
system.l2.ReadExReq_miss_latency::.cpu.data   1319465500                       # number of ReadExReq miss cycles
system.l2.ReadExReq_miss_latency::total    1319465500                       # number of ReadExReq miss cycles
system.l2.ReadExReq_accesses::.cpu.data         15205                       # number of ReadExReq accesses(hits+misses)
system.l2.ReadExReq_accesses::total             15205                       # number of ReadExReq accesses(hits+misses)
system.l2.ReadExReq_miss_rate::.cpu.data     0.999934                       # miss rate for ReadExReq accesses
system.l2.ReadExReq_miss_rate::total         0.999934                       # miss rate for ReadExReq accesses
system.l2.ReadExReq_avg_miss_latency::.cpu.data 86784.102868                       # average ReadExReq miss latency
system.l2.ReadExReq_avg_miss_latency::total 86784.102868                       # average ReadExReq miss latency
system.l2.ReadExReq_mshr_misses::.cpu.data        15204                       # number of ReadExReq MSHR misses
system.l2.ReadExReq_mshr_misses::total          15204                       # number of ReadExReq MSHR misses
system.l2.ReadExReq_mshr_miss_latency::.cpu.data   1167445500                       # number of ReadExReq MSHR miss cycles
system.l2.ReadExReq_mshr_miss_latency::total   1167445500                       # number of ReadExReq MSHR miss cycles
system.l2.ReadExReq_mshr_miss_rate::.cpu.data     0.999934                       # mshr miss rate for ReadExReq accesses
system.l2.ReadExReq_mshr_miss_rate::total     0.999934                       # mshr miss rate for ReadExReq accesses
system.l2.ReadExReq_avg_mshr_miss_latency::.cpu.data 76785.418311                       # average ReadExReq mshr miss latency
system.l2.ReadExReq_avg_mshr_miss_latency::total 76785.418311                       # average ReadExReq mshr miss latency
system.l2.ReadCleanReq_hits::.cpu.inst           1315                       # number of ReadCleanReq hits
system.l2.ReadCleanReq_hits::.cpu.icache.prefetcher         2781                       # number of ReadCleanReq hits
system.l2.ReadCleanReq_hits::total               4096                       # number of ReadCleanReq hits
system.l2.ReadCleanReq_misses::.cpu.inst          608                       # number of ReadCleanReq misses
system.l2.ReadCleanReq_misses::total              608                       # number of ReadCleanReq misses
system.l2.ReadCleanReq_miss_latency::.cpu.inst     47417000                       # number of ReadCleanReq miss cycles
system.l2.ReadCleanReq_miss_latency::total     47417000                       # number of ReadCleanReq miss cycles
system.l2.ReadCleanReq_accesses::.cpu.inst         1923                       # number of ReadCleanReq accesses(hits+misses)
[...]
system.cpu.dcache.overall_misses::total        128975                       # number of overall misses
system.cpu.dcache.demand_miss_latency::.cpu.data   9969328919                       # number of demand (read+write) miss cycles
system.cpu.dcache.demand_miss_latency::total   9969328919                       # number of demand (read+write) miss cycles
system.cpu.dcache.overall_miss_latency::.cpu.data   9969328919                       # number of overall miss cycles
system.cpu.dcache.overall_miss_latency::total   9969328919                       # number of overall miss cycles
system.cpu.dcache.demand_accesses::.cpu.data       407362                       # number of demand (read+write) accesses
system.cpu.dcache.demand_accesses::total       407362                       # number of demand (read+write) accesses
system.cpu.dcache.overall_accesses::.cpu.data       407418                       # number of overall (read+write) accesses
system.cpu.dcache.overall_accesses::total       407418                       # number of overall (read+write) accesses
system.cpu.dcache.demand_miss_rate::.cpu.data     0.316600                       # miss rate for demand accesses
system.cpu.dcache.demand_miss_rate::total     0.316600                       # miss rate for demand accesses
system.cpu.dcache.overall_miss_rate::.cpu.data     0.316567                       # miss rate for overall accesses
system.cpu.dcache.overall_miss_rate::total     0.316567                       # miss rate for overall accesses
system.cpu.dcache.demand_avg_miss_latency::.cpu.data 77298.996821                       # average overall miss latency
system.cpu.dcache.demand_avg_miss_latency::total 77298.996821                       # average overall miss latency
system.cpu.dcache.overall_avg_miss_latency::.cpu.data 77296.599488                       # average overall miss latency
system.cpu.dcache.overall_avg_miss_latency::total 77296.599488                       # average overall miss latency
system.cpu.dcache.blocked_cycles::no_mshrs        96362                       # number of cycles access was blocked
system.cpu.dcache.blocked_cycles::no_targets            0                       # number of cycles access was blocked
system.cpu.dcache.blocked::no_mshrs              3608                       # number of cycles access was blocked
system.cpu.dcache.blocked::no_targets               0                       # number of cycles access was blocked
system.cpu.dcache.avg_blocked_cycles::no_mshrs    26.707871                       # average number of cycles each access was blocked
system.cpu.dcache.avg_blocked_cycles::no_targets          nan                       # average number of cycles each access was blocked
system.cpu.dcache.writebacks::.writebacks        15026                       # number of writebacks
system.cpu.dcache.writebacks::total             15026                       # number of writebacks
system.cpu.dcache.demand_mshr_hits::.cpu.data       113625                       # number of demand (read+write) MSHR hits
system.cpu.dcache.demand_mshr_hits::total       113625                       # number of demand (read+write) MSHR hits
system.cpu.dcache.overall_mshr_hits::.cpu.data       113625                       # number of overall MSHR hits
system.cpu.dcache.overall_mshr_hits::total       113625                       # number of overall MSHR hits
system.cpu.dcache.demand_mshr_misses::.cpu.data        15346                       # number of demand (read+write) MSHR misses
system.cpu.dcache.demand_mshr_misses::total        15346                       # number of demand (read+write) MSHR misses
system.cpu.dcache.overall_mshr_misses::.cpu.data        15349                       # number of overall MSHR misses
system.cpu.dcache.overall_mshr_misses::total        15349                       # number of overall MSHR misses
system.cpu.dcache.demand_mshr_miss_latency::.cpu.data   1353938996                       # number of demand (read+write) MSHR miss cycles
system.cpu.dcache.demand_mshr_miss_latency::total   1353938996                       # number of demand (read+write) MSHR miss cycles
system.cpu.dcache.overall_mshr_miss_latency::.cpu.data   1354173496                       # number of overall MSHR miss cycles
system.cpu.dcache.overall_mshr_miss_latency::total   1354173496                       # number of overall MSHR miss cycles
system.cpu.dcache.demand_mshr_miss_rate::.cpu.data     0.037672                       # mshr miss rate for demand accesses
system.cpu.dcache.demand_mshr_miss_rate::total     0.037672                       # mshr miss rate for demand accesses
system.cpu.dcache.overall_mshr_miss_rate::.cpu.data     0.037674                       # mshr miss rate for overall accesses
system.cpu.dcache.overall_mshr_miss_rate::total     0.037674                       # mshr miss rate for overall accesses
system.cpu.dcache.demand_avg_mshr_miss_latency::.cpu.data 88227.485729                       # average overall mshr miss latency
system.cpu.dcache.demand_avg_mshr_miss_latency::total 88227.485729                       # average overall mshr miss latency
system.cpu.dcache.overall_avg_mshr_miss_latency::.cpu.data 88225.519317                       # average overall mshr miss latency
system.cpu.dcache.overall_avg_mshr_miss_latency::total 88225.519317                       # average overall mshr miss latency
system.cpu.dcache.replacements                  15034                       # number of replacements
system.cpu.dcache.ReadReq_hits::.cpu.data       273247                       # number of ReadReq hits
system.cpu.dcache.ReadReq_hits::total          273247                       # number of ReadReq hits
system.cpu.dcache.ReadReq_misses::.cpu.data          295                       # number of ReadReq misses
system.cpu.dcache.ReadReq_misses::total           295                       # number of ReadReq misses
system.cpu.dcache.ReadReq_miss_latency::.cpu.data     22310500                       # number of ReadReq miss cycles
system.cpu.dcache.ReadReq_miss_latency::total     22310500                       # number of ReadReq miss cycles
system.cpu.dcache.ReadReq_accesses::.cpu.data       273542                       # number of ReadReq accesses(hits+misses)
system.cpu.dcache.ReadReq_accesses::total       273542                       # number of ReadReq accesses(hits+misses)
system.cpu.dcache.ReadReq_miss_rate::.cpu.data     0.001078                       # miss rate for ReadReq accesses
system.cpu.dcache.ReadReq_miss_rate::total     0.001078                       # miss rate for ReadReq accesses
system.cpu.dcache.ReadReq_avg_miss_latency::.cpu.data 75628.813559                       # average ReadReq miss latency
system.cpu.dcache.ReadReq_avg_miss_latency::total 75628.813559                       # average ReadReq miss latency
system.cpu.dcache.ReadReq_mshr_hits::.cpu.data          161                       # number of ReadReq MSHR hits
system.cpu.dcache.ReadReq_mshr_hits::total          161                       # number of ReadReq MSHR hits
system.cpu.dcache.ReadReq_mshr_misses::.cpu.data          134                       # number of ReadReq MSHR misses
system.cpu.dcache.ReadReq_mshr_misses::total          134                       # number of ReadReq MSHR misses
system.cpu.dcache.ReadReq_mshr_miss_latency::.cpu.data     11430000                       # number of ReadReq MSHR miss cycles
system.cpu.dcache.ReadReq_mshr_miss_latency::total     11430000                       # number of ReadReq MSHR miss cycles
system.cpu.dcache.ReadReq_mshr_miss_rate::.cpu.data     0.000490                       # mshr miss rate for ReadReq accesses
system.cpu.dcache.ReadReq_mshr_miss_rate::total     0.000490                       # mshr miss rate for ReadReq accesses
system.cpu.dcache.ReadReq_avg_mshr_miss_latency::.cpu.data 85298.507463                       # average ReadReq mshr miss latency
system.cpu.dcache.ReadReq_avg_mshr_miss_latency::total 85298.507463                       # average ReadReq mshr miss latency
system.cpu.dcache.WriteReq_hits::.cpu.data         5144                       # number of WriteReq hits
system.cpu.dcache.WriteReq_hits::total           5144                       # number of WriteReq hits
system.cpu.dcache.WriteReq_misses::.cpu.data       128669                       # number of WriteReq misses
system.cpu.dcache.WriteReq_misses::total       128669                       # number of WriteReq misses
system.cpu.dcache.WriteReq_miss_latency::.cpu.data   9946795921                       # number of WriteReq miss cycles
system.cpu.dcache.WriteReq_miss_latency::total   9946795921                       # number of WriteReq miss cycles
system.cpu.dcache.WriteReq_accesses::.cpu.data       133813                       # number of WriteReq accesses(hits+misses)
system.cpu.dcache.WriteReq_accesses::total       133813                       # number of WriteReq accesses(hits+misses)
system.cpu.dcache.WriteReq_miss_rate::.cpu.data     0.961558                       # miss rate for WriteReq accesses
system.cpu.dcache.WriteReq_miss_rate::total     0.961558                       # miss rate for WriteReq accesses
system.cpu.dcache.WriteReq_avg_miss_latency::.cpu.data 77305.302140                       # average WriteReq miss latency
system.cpu.dcache.WriteReq_avg_miss_latency::total 77305.302140                       # average WriteReq miss latency
system.cpu.dcache.WriteReq_mshr_hits::.cpu.data       113464                       # number of WriteReq MSHR hits
system.cpu.dcache.WriteReq_mshr_hits::total       113464                       # number of WriteReq MSHR hits
system.cpu.dcache.WriteReq_mshr_misses::.cpu.data        15205                       # number of WriteReq MSHR misses
system.cpu.dcache.WriteReq_mshr_misses::total        15205                       # number of WriteReq MSHR misses
system.cpu.dcache.WriteReq_mshr_miss_latency::.cpu.data   1342293498                       # number of WriteReq MSHR miss cycles
system.cpu.dcache.WriteReq_mshr_miss_latency::total   1342293498                       # number of WriteReq MSHR miss cycles
system.cpu.dcache.WriteReq_mshr_miss_rate::.cpu.data     0.113629                       # mshr miss rate for WriteReq accesses
system.cpu.dcache.WriteReq_mshr_miss_rate::total     0.113629                       # mshr miss rate for WriteReq accesses
system.cpu.dcache.WriteReq_avg_mshr_miss_latency::.cpu.data 88279.743374                       # average WriteReq mshr miss latency
system.cpu.dcache.WriteReq_avg_mshr_miss_latency::total 88279.743374                       # average WriteReq mshr miss latency
system.cpu.dcache.SoftPFReq_hits::.cpu.data           52                       # number of SoftPFReq hits
system.cpu.dcache.SoftPFReq_hits::total            52                       # number of SoftPFReq hits
system.cpu.dcache.SoftPFReq_misses::.cpu.data            4                       # number of SoftPFReq misses
system.cpu.dcache.SoftPFReq_misses::total            4                       # number of SoftPFReq misses
system.cpu.dcache.SoftPFReq_accesses::.cpu.data           56                       # number of SoftPFReq accesses(hits+misses)
system.cpu.dcache.SoftPFReq_accesses::total           56                       # number of SoftPFReq accesses(hits+misses)
system.cpu.dcache.SoftPFReq_miss_rate::.cpu.data     0.071429                       # miss rate for SoftPFReq accesses
system.cpu.dcache.SoftPFReq_miss_rate::total     0.071429                       # miss rate for SoftPFReq accesses
system.cpu.dcache.SoftPFReq_mshr_misses::.cpu.data            3                       # number of SoftPFReq MSHR misses
system.cpu.dcache.SoftPFReq_mshr_misses::total            3                       # number of SoftPFReq MSHR misses
system.cpu.dcache.SoftPFReq_mshr_miss_latency::.cpu.data       234500                       # number of SoftPFReq MSHR miss cycles
system.cpu.dcache.SoftPFReq_mshr_miss_latency::total       234500                       # number of SoftPFReq MSHR miss cycles
system.cpu.dcache.SoftPFReq_mshr_miss_rate::.cpu.data     0.053571                       # mshr miss rate for SoftPFReq accesses
system.cpu.dcache.SoftPFReq_mshr_miss_rate::total     0.053571                       # mshr miss rate for SoftPFReq accesses
system.cpu.dcache.SoftPFReq_avg_mshr_miss_latency::.cpu.data 78166.666667                       # average SoftPFReq mshr miss latency
system.cpu.dcache.SoftPFReq_avg_mshr_miss_latency::total 78166.666667                       # average SoftPFReq mshr miss latency
system.cpu.dcache.WriteLineReq_misses::.cpu.data            7                       # number of WriteLineReq misses
system.cpu.dcache.WriteLineReq_misses::total            7                       # number of WriteLineReq misses
system.cpu.dcache.WriteLineReq_miss_latency::.cpu.data       222498                       # number of WriteLineReq miss cycles
system.cpu.dcache.WriteLineReq_miss_latency::total       222498                       # number of WriteLineReq miss cycles
system.cpu.dcache.WriteLineReq_accesses::.cpu.data            7                       # number of WriteLineReq accesses(hits+misses)
system.cpu.dcache.WriteLineReq_accesses::total            7                       # number of WriteLineReq accesses(hits+misses)
system.cpu.dcache.WriteLineReq_miss_rate::.cpu.data            1                       # miss rate for WriteLineReq accesses
system.cpu.dcache.WriteLineReq_miss_rate::total            1                       # miss rate for WriteLineReq accesses
system.cpu.dcache.WriteLineReq_avg_miss_latency::.cpu.data 31785.428571                       # average WriteLineReq miss latency
system.cpu.dcache.WriteLineReq_avg_miss_latency::total 31785.428571                       # average WriteLineReq miss latency
system.cpu.dcache.WriteLineReq_mshr_misses::.cpu.data            7                       # number of WriteLineReq MSHR misses
system.cpu.dcache.WriteLineReq_mshr_misses::total            7                       # number of WriteLineReq MSHR misses
system.cpu.dcache.WriteLineReq_mshr_miss_latency::.cpu.data       215498                       # number of WriteLineReq MSHR miss cycles
system.cpu.dcache.WriteLineReq_mshr_miss_latency::total       215498                       # number of WriteLineReq MSHR miss cycles
system.cpu.dcache.WriteLineReq_mshr_miss_rate::.cpu.data            1                       # mshr miss rate for WriteLineReq accesses
system.cpu.dcache.WriteLineReq_mshr_miss_rate::total            1                       # mshr miss rate for WriteLineReq accesses
system.cpu.dcache.WriteLineReq_avg_mshr_miss_latency::.cpu.data 30785.428571                       # average WriteLineReq mshr miss latency
system.cpu.dcache.WriteLineReq_avg_mshr_miss_latency::total 30785.428571                       # average WriteLineReq mshr miss latency
system.cpu.dcache.LoadLockedReq_hits::.cpu.data          168                       # number of LoadLockedReq hits
system.cpu.dcache.LoadLockedReq_hits::total          168                       # number of LoadLockedReq hits
system.cpu.dcache.LoadLockedReq_misses::.cpu.data            1                       # number of LoadLockedReq misses
system.cpu.dcache.LoadLockedReq_misses::total            1                       # number of LoadLockedReq misses
system.cpu.dcache.LoadLockedReq_miss_latency::.cpu.data        87500                       # number of LoadLockedReq miss cycles
system.cpu.dcache.LoadLockedReq_miss_latency::total        87500                       # number of LoadLockedReq miss cycles
system.cpu.dcache.LoadLockedReq_accesses::.cpu.data          169                       # number of LoadLockedReq accesses(hits+misses)
system.cpu.dcache.LoadLockedReq_accesses::total          169                       # number of LoadLockedReq accesses(hits+misses)
system.cpu.dcache.LoadLockedReq_miss_rate::.cpu.data     0.005917                       # miss rate for LoadLockedReq accesses
system.cpu.dcache.LoadLockedReq_miss_rate::total     0.005917                       # miss rate for LoadLockedReq accesses
system.cpu.dcache.LoadLockedReq_avg_miss_latency::.cpu.data        87500                       # average LoadLockedReq miss latency
system.cpu.dcache.LoadLockedReq_avg_miss_latency::total        87500                       # average LoadLockedReq miss latency
system.cpu.dcache.LoadLockedReq_mshr_misses::.cpu.data            1                       # number of LoadLockedReq MSHR misses
system.cpu.dcache.LoadLockedReq_mshr_misses::total            1                       # number of LoadLockedReq MSHR misses
system.cpu.dcache.LoadLockedReq_mshr_miss_latency::.cpu.data        86500                       # number of LoadLockedReq MSHR miss cycles
system.cpu.dcache.LoadLockedReq_mshr_miss_latency::total        86500                       # number of LoadLockedReq MSHR miss cycles
system.cpu.dcache.LoadLockedReq_mshr_miss_rate::.cpu.data     0.005917                       # mshr miss rate for LoadLockedReq accesses
system.cpu.dcache.LoadLockedReq_mshr_miss_rate::total     0.005917                       # mshr miss rate for LoadLockedReq accesses
system.cpu.dcache.LoadLockedReq_avg_mshr_miss_latency::.cpu.data        86500                       # average LoadLockedReq mshr miss latency
system.cpu.dcache.LoadLockedReq_avg_mshr_miss_latency::total        86500                       # average LoadLockedReq mshr miss latency
system.cpu.dcache.StoreCondReq_hits::.cpu.data          142                       # number of StoreCondReq hits
system.cpu.dcache.StoreCondReq_hits::total          142                       # number of StoreCondReq hits
system.cpu.dcache.StoreCondReq_accesses::.cpu.data          142                       # number of StoreCondReq accesses(hits+misses)
system.cpu.dcache.StoreCondReq_accesses::total          142                       # number of StoreCondReq accesses(hits+misses)
system.cpu.dcache.power_state.pwrStateResidencyTicks::UNDEFINED    784217000                       # Cumulative time (in ticks) in various power states
system.cpu.dcache.tags.tagsinuse           304.746677                       # Cycle average of tags in use
system.cpu.dcache.tags.total_refs              294101                       # Total number of references to valid blocks.
system.cpu.dcache.tags.sampled_refs             15348                       # Sample count of references to valid blocks.
system.cpu.dcache.tags.avg_refs             19.162171                       # Average number of references to valid blocks.
system.cpu.dcache.tags.warmup_cycle            249500                       # Cycle when the warmup percentage was hit.
system.cpu.dcache.tags.occ_blocks::.cpu.data   304.746677                       # Average occupied blocks per requestor
system.cpu.dcache.tags.occ_percent::.cpu.data     0.297604                       # Average percentage of cache occupancy
system.cpu.dcache.tags.occ_percent::total     0.297604                       # Average percentage of cache occupancy
system.cpu.dcache.tags.occ_task_id_blocks::1024          314                       # Occupied blocks per task id
system.cpu.dcache.tags.age_task_id_blocks_1024::0           64                       # Occupied blocks per task id
system.cpu.dcache.tags.age_task_id_blocks_1024::2          250                       # Occupied blocks per task id
system.cpu.dcache.tags.occ_task_id_percent::1024     0.306641                       # Percentage of cache occupancy per task id
system.cpu.dcache.tags.tag_accesses            830806                       # Number of tag accesses
system.cpu.dcache.tags.data_accesses           830806                       # Number of data accesses
system.cpu.dcache.tags.power_state.pwrStateResidencyTicks::UNDEFINED    784217000                       # Cumulative time (in ticks) in various power states
system.cpu.power_state.pwrStateResidencyTicks::ON    784217000                       # Cumulative time (in ticks) in various power states

---------- End Simulation Statistics   ----------
