
---------- Begin Simulation Statistics ----------
final_tick                                 3048321000                       # Number of ticks from beginning of simulation (restored from checkpoints and never reset)
host_inst_rate                                 117579                       # Simulator instruction rate (inst/s)
host_mem_usage                                 884012                       # Number of bytes of host memory used
host_op_rate                                   130893                       # Simulator op (including micro ops) rate (op/s)
host_seconds                                    85.05                       # Real time elapsed on the host
host_tick_rate                               35841631                       # Simulator tick rate (ticks/s)
sim_freq                                 1000000000000                       # Frequency of simulated ticks
sim_insts                                    10000002                       # Number of instructions simulated
sim_ops                                      11132386                       # Number of ops (including micro ops) simulated
sim_seconds                                  0.003048                       # Number of seconds simulated
sim_ticks                                  3048321000                       # Number of ticks simulated
system.cpu.branchPred.BTBCorrect                    0                       # Number of correct BTB predictions (this stat may not work properly.
system.cpu.branchPred.BTBHitPct             98.336917                       # BTB Hit Percentage
system.cpu.branchPred.BTBHits                  967178                       # Number of BTB hits
system.cpu.branchPred.BTBLookups               983535                       # Number of BTB lookups
system.cpu.branchPred.RASInCorrect                  0                       # Number of incorrect RAS predictions.
system.cpu.branchPred.condIncorrect             40879                       # Number of conditional branches incorrect
system.cpu.branchPred.condPredicted           1507971                       # Number of conditional branches predicted
system.cpu.branchPred.indirectHits              34265                       # Number of indirect target hits.
system.cpu.branchPred.indirectLookups           34510                       # Number of indirect predictor lookups.
system.cpu.branchPred.indirectMisses              245                       # Number of indirect misses.
system.cpu.branchPred.lookups                 2030377                       # Number of BP lookups
system.cpu.branchPred.usedRAS                  183759                       # Number of times the RAS was used to get a target.
system.cpu.branchPredindirectMispredicted           71                       # Number of mispredicted indirect branches.
system.cpu.cc_regfile_reads                   3509841                       # number of cc regfile reads
system.cpu.cc_regfile_writes                  3505907                       # number of cc regfile writes
system.cpu.commit.amos                              0                       # Number of atomic instructions committed
system.cpu.commit.branchMispredicts             37763                       # The number of times a branch was mispredicted
system.cpu.commit.branches                    1873361                       # Number of branches committed
system.cpu.commit.bw_lim_events                596704                       # number cycles where commit BW limit reached
system.cpu.commit.commitNonSpecStalls           11441                       # The number of times commit has been forced to stall to communicate backwards
system.cpu.commit.commitSquashedInsts          408311                       # The number of squashed insts skipped by commit
system.cpu.commit.committedInsts             10008567                       # Number of instructions committed
system.cpu.commit.committedOps               11140951                       # Number of ops (including micro ops) committed
system.cpu.commit.committed_per_cycle::samples      5866494                       # Number of insts commited each cycle
system.cpu.commit.committed_per_cycle::mean     1.899082                       # Number of insts commited each cycle
system.cpu.commit.committed_per_cycle::stdev     2.552536                       # Number of insts commited each cycle
system.cpu.commit.committed_per_cycle::underflows            0      0.00%      0.00% # Number of insts commited each cycle
system.cpu.commit.committed_per_cycle::0      2529368     43.12%     43.12% # Number of insts commited each cycle
system.cpu.commit.committed_per_cycle::1      1082016     18.44%     61.56% # Number of insts commited each cycle
system.cpu.commit.committed_per_cycle::2       727578     12.40%     73.96% # Number of insts commited each cycle
system.cpu.commit.committed_per_cycle::3       426555      7.27%     81.23% # Number of insts commited each cycle
system.cpu.commit.committed_per_cycle::4       162155      2.76%     84.00% # Number of insts commited each cycle
system.cpu.commit.committed_per_cycle::5       205132      3.50%     87.49% # Number of insts commited each cycle
system.cpu.commit.committed_per_cycle::6        82700      1.41%     88.90% # Number of insts commited each cycle
system.cpu.commit.committed_per_cycle::7        54286      0.93%     89.83% # Number of insts commited each cycle
system.cpu.commit.committed_per_cycle::8       596704     10.17%    100.00% # Number of insts commited each cycle
system.cpu.commit.committed_per_cycle::overflows            0      0.00%    100.00% # Number of insts commited each cycle
system.cpu.commit.committed_per_cycle::min_value            0                       # Number of insts commited each cycle
system.cpu.commit.committed_per_cycle::max_value            8                       # Number of insts commited each cycle
system.cpu.commit.committed_per_cycle::total      5866494                       # Number of insts commited each cycle
system.cpu.commit.fp_insts                          0                       # Number of committed floating point instructions.
system.cpu.commit.function_calls               183162                       # Number of function calls committed.
system.cpu.commit.int_insts                   9941907                       # Number of committed integer instructions.
system.cpu.commit.loads                       1623294                       # Number of loads committed
system.cpu.commit.membars                       11427                       # Number of memory barriers committed
system.cpu.commit.op_class_0::No_OpClass        11428      0.10%      0.10% # Class of committed instruction
system.cpu.commit.op_class_0::IntAlu          7562941     67.88%     67.99% # Class of committed instruction
system.cpu.commit.op_class_0::IntMult          227263      2.04%     70.03% # Class of committed instruction
system.cpu.commit.op_class_0::IntDiv                4      0.00%     70.03% # Class of committed instruction
system.cpu.commit.op_class_0::FloatAdd              0      0.00%     70.03% # Class of committed instruction
system.cpu.commit.op_class_0::FloatCmp          11420      0.10%     70.13% # Class of committed instruction
system.cpu.commit.op_class_0::FloatCvt           5710      0.05%     70.18% # Class of committed instruction
system.cpu.commit.op_class_0::FloatMult             0      0.00%     70.18% # Class of committed instruction
system.cpu.commit.op_class_0::FloatMultAcc            0      0.00%     70.18% # Class of committed instruction
system.cpu.commit.op_class_0::FloatDiv           5710      0.05%     70.23% # Class of committed instruction
system.cpu.commit.op_class_0::FloatMisc         22840      0.21%     70.44% # Class of committed instruction
system.cpu.commit.op_class_0::FloatSqrt             0      0.00%     70.44% # Class of committed instruction
system.cpu.commit.op_class_0::SimdAdd           22868      0.21%     70.64% # Class of committed instruction
system.cpu.commit.op_class_0::SimdAddAcc            0      0.00%     70.64% # Class of committed instruction
system.cpu.commit.op_class_0::SimdAlu           45709      0.41%     71.05% # Class of committed instruction
system.cpu.commit.op_class_0::SimdCmp           45712      0.41%     71.46% # Class of committed instruction
system.cpu.commit.op_class_0::SimdCvt               0      0.00%     71.46% # Class of committed instruction
system.cpu.commit.op_class_0::SimdMisc          34285      0.31%     71.77% # Class of committed instruction
system.cpu.commit.op_class_0::SimdMult              0      0.00%     71.77% # Class of committed instruction
system.cpu.commit.op_class_0::SimdMultAcc            0      0.00%     71.77% # Class of committed instruction
system.cpu.commit.op_class_0::SimdShift             0      0.00%     71.77% # Class of committed instruction
system.cpu.commit.op_class_0::SimdShiftAcc            0      0.00%     71.77% # Class of committed instruction
system.cpu.commit.op_class_0::SimdDiv               0      0.00%     71.77% # Class of committed instruction
system.cpu.commit.op_class_0::SimdSqrt              0      0.00%     71.77% # Class of committed instruction
system.cpu.commit.op_class_0::SimdFloatAdd            0      0.00%     71.77% # Class of committed instruction
system.cpu.commit.op_class_0::SimdFloatAlu            0      0.00%     71.77% # Class of committed instruction
system.cpu.commit.op_class_0::SimdFloatCmp            0      0.00%     71.77% # Class of committed instruction
system.cpu.commit.op_class_0::SimdFloatCvt            0      0.00%     71.77% # Class of committed instruction
system.cpu.commit.op_class_0::SimdFloatDiv            0      0.00%     71.77% # Class of committed instruction
system.cpu.commit.op_class_0::SimdFloatMisc            0      0.00%     71.77% # Class of committed instruction
system.cpu.commit.op_class_0::SimdFloatMult            0      0.00%     71.77% # Class of committed instruction
system.cpu.commit.op_class_0::SimdFloatMultAcc            0      0.00%     71.77% # Class of committed instruction
system.cpu.commit.op_class_0::SimdFloatSqrt            0      0.00%     71.77% # Class of committed instruction
system.cpu.commit.op_class_0::SimdReduceAdd            0      0.00%     71.77% # Class of committed instruction
system.cpu.commit.op_class_0::SimdReduceAlu            0      0.00%     71.77% # Class of committed instruction
system.cpu.commit.op_class_0::SimdReduceCmp            0      0.00%     71.77% # Class of committed instruction
system.cpu.commit.op_class_0::SimdFloatReduceAdd            0      0.00%     71.77% # Class of committed instruction
system.cpu.commit.op_class_0::SimdFloatReduceCmp            0      0.00%     71.77% # Class of committed instruction
system.cpu.commit.op_class_0::SimdAes               0      0.00%     71.77% # Class of committed instruction
system.cpu.commit.op_class_0::SimdAesMix            0      0.00%     71.77% # Class of committed instruction
system.cpu.commit.op_class_0::SimdSha1Hash            0      0.00%     71.77% # Class of committed instruction
system.cpu.commit.op_class_0::SimdSha1Hash2            0      0.00%     71.77% # Class of committed instruction
system.cpu.commit.op_class_0::SimdSha256Hash            0      0.00%     71.77% # Class of committed instruction
system.cpu.commit.op_class_0::SimdSha256Hash2            0      0.00%     71.77% # Class of committed instruction
system.cpu.commit.op_class_0::SimdShaSigma2            0      0.00%     71.77% # Class of committed instruction
system.cpu.commit.op_class_0::SimdShaSigma3            0      0.00%     71.77% # Class of committed instruction
system.cpu.commit.op_class_0::SimdPredAlu            0      0.00%     71.77% # Class of committed instruction
system.cpu.commit.op_class_0::MemRead         1623294     14.57%     86.34% # Class of committed instruction
system.cpu.commit.op_class_0::MemWrite        1521767     13.66%    100.00% # Class of committed instruction
system.cpu.commit.op_class_0::FloatMemRead            0      0.00%    100.00% # Class of committed instruction
system.cpu.commit.op_class_0::FloatMemWrite            0      0.00%    100.00% # Class of committed instruction
system.cpu.commit.op_class_0::IprAccess             0      0.00%    100.00% # Class of committed instruction
system.cpu.commit.op_class_0::InstPrefetch            0      0.00%    100.00% # Class of committed instruction
system.cpu.commit.op_class_0::total          11140951                       # Class of committed instruction
system.cpu.commit.refs                        3145061                       # Number of memory references committed
system.cpu.commit.swp_count                         0                       # Number of s/w prefetches committed
system.cpu.commit.vec_insts                    337102                       # Number of committed Vector instructions.
system.cpu.committedInsts                    10000002                       # Number of Instructions Simulated
system.cpu.committedOps                      11132386                       # Number of Ops (including micro ops) Simulated
system.cpu.cpi                               0.609664                       # CPI: Cycles Per Instruction
system.cpu.cpi_total                         0.609664                       # CPI: Total CPI of All Threads
system.cpu.decode.BlockedCycles                645442                       # Number of cycles decode is blocked
system.cpu.decode.BranchMispred                  3124                       # Number of times decode detected a branch misprediction
system.cpu.decode.BranchResolved               958108                       # Number of times decode resolved a branch
system.cpu.decode.DecodedInsts               11828360                       # Number of instructions handled by decode
system.cpu.decode.IdleCycles                  2921710                       # Number of cycles decode is idle
system.cpu.decode.RunCycles                   2255361                       # Number of cycles decode is running
system.cpu.decode.SquashCycles                  37847                       # Number of cycles decode is squashing
system.cpu.decode.SquashedInsts                 12726                       # Number of squashed instructions handled by decode
system.cpu.decode.UnblockCycles                 73010                       # Number of cycles decode is unblocking
system.cpu.dtb.accesses                             0                       # DTB accesses
system.cpu.dtb.align_faults                         0                       # Number of TLB faults due to alignment restrictions
system.cpu.dtb.domain_faults                        0                       # Number of TLB faults due to domain restrictions
system.cpu.dtb.flush_entries                        0                       # Number of entries that have been flushed from TLB
system.cpu.dtb.flush_tlb                            0                       # Number of times complete TLB was flushed
system.cpu.dtb.flush_tlb_asid                       0                       # Number of times TLB was flushed by ASID
system.cpu.dtb.flush_tlb_mva                        0                       # Number of times TLB was flushed by MVA
system.cpu.dtb.flush_tlb_mva_asid                   0                       # Number of times TLB was flushed by MVA & ASID
system.cpu.dtb.hits                                 0                       # DTB hits
system.cpu.dtb.inst_accesses                        0                       # ITB inst accesses
system.cpu.dtb.inst_hits                            0                       # ITB inst hits
system.cpu.dtb.inst_misses                          0                       # ITB inst misses
system.cpu.dtb.misses                               0                       # DTB misses
system.cpu.dtb.perms_faults                         0                       # Number of TLB faults due to permissions restrictions
system.cpu.dtb.prefetch_faults                      0                       # Number of TLB faults due to prefetch
system.cpu.dtb.read_accesses                        0                       # DTB read accesses
system.cpu.dtb.read_hits                            0                       # DTB read hits
system.cpu.dtb.read_misses                          0                       # DTB read misses
system.cpu.dtb.stage2_mmu.stage2_tlb.accesses            0                       # DTB accesses
system.cpu.dtb.stage2_mmu.stage2_tlb.align_faults            0                       # Number of TLB faults due to alignment restrictions
system.cpu.dtb.stage2_mmu.stage2_tlb.domain_faults            0                       # Number of TLB faults due to domain restrictions
system.cpu.dtb.stage2_mmu.stage2_tlb.flush_entries            0                       # Number of entries that have been flushed from TLB
system.cpu.dtb.stage2_mmu.stage2_tlb.flush_tlb            0                       # Number of times complete TLB was flushed
system.cpu.dtb.stage2_mmu.stage2_tlb.flush_tlb_asid            0                       # Number of times TLB was flushed by ASID
system.cpu.dtb.stage2_mmu.stage2_tlb.flush_tlb_mva            0                       # Number of times TLB was flushed by MVA
system.cpu.dtb.stage2_mmu.stage2_tlb.flush_tlb_mva_asid            0                       # Number of times TLB was flushed by MVA & ASID
system.cpu.dtb.stage2_mmu.stage2_tlb.hits            0                       # DTB hits
system.cpu.dtb.stage2_mmu.stage2_tlb.inst_accesses            0                       # ITB inst accesses
system.cpu.dtb.stage2_mmu.stage2_tlb.inst_hits            0                       # ITB inst hits
system.cpu.dtb.stage2_mmu.stage2_tlb.inst_misses            0                       # ITB inst misses
system.cpu.dtb.stage2_mmu.stage2_tlb.misses            0                       # DTB misses
system.cpu.dtb.stage2_mmu.stage2_tlb.perms_faults            0                       # Number of TLB faults due to permissions restrictions
system.cpu.dtb.stage2_mmu.stage2_tlb.prefetch_faults            0                       # Number of TLB faults due to prefetch
system.cpu.dtb.stage2_mmu.stage2_tlb.read_accesses            0                       # DTB read accesses
system.cpu.dtb.stage2_mmu.stage2_tlb.read_hits            0                       # DTB read hits
system.cpu.dtb.stage2_mmu.stage2_tlb.read_misses            0                       # DTB read misses
system.cpu.dtb.stage2_mmu.stage2_tlb.walker.walkRequestOrigin_Requested::Data            0                       # Table walker requests started/completed, data/inst
system.cpu.dtb.stage2_mmu.stage2_tlb.walker.walkRequestOrigin_Requested::Inst            0                       # Table walker requests started/completed, data/inst
system.cpu.dtb.stage2_mmu.stage2_tlb.walker.walkRequestOrigin_Requested::total            0                       # Table walker requests started/completed, data/inst
system.cpu.dtb.stage2_mmu.stage2_tlb.walker.walkRequestOrigin_Completed::Data            0                       # Table walker requests started/completed, data/inst
system.cpu.dtb.stage2_mmu.stage2_tlb.walker.walkRequestOrigin_Completed::Inst            0                       # Table walker requests started/completed, data/inst
system.cpu.dtb.stage2_mmu.stage2_tlb.walker.walkRequestOrigin_Completed::total            0                       # Table walker requests started/completed, data/inst
system.cpu.dtb.stage2_mmu.stage2_tlb.walker.walkRequestOrigin::total            0                       # Table walker requests started/completed, data/inst
system.cpu.dtb.stage2_mmu.stage2_tlb.walker.walks            0                       # Table walker walks requested
system.cpu.dtb.stage2_mmu.stage2_tlb.write_accesses            0                       # DTB write accesses
system.cpu.dtb.stage2_mmu.stage2_tlb.write_hits            0                       # DTB write hits
system.cpu.dtb.stage2_mmu.stage2_tlb.write_misses            0                       # DTB write misses
system.cpu.dtb.walker.walkRequestOrigin_Requested::Data            0                       # Table walker requests started/completed, data/inst
system.cpu.dtb.walker.walkRequestOrigin_Requested::Inst            0                       # Table walker requests started/completed, data/inst
system.cpu.dtb.walker.walkRequestOrigin_Requested::total            0                       # Table walker requests started/completed, data/inst
system.cpu.dtb.walker.walkRequestOrigin_Completed::Data            0                       # Table walker requests started/completed, data/inst
system.cpu.dtb.walker.walkRequestOrigin_Completed::Inst            0                       # Table walker requests started/completed, data/inst
system.cpu.dtb.walker.walkRequestOrigin_Completed::total            0                       # Table walker requests started/completed, data/inst
system.cpu.dtb.walker.walkRequestOrigin::total            0                       # Table walker requests started/completed, data/inst
system.cpu.dtb.walker.walks                         0                       # Table walker walks requested
system.cpu.dtb.write_accesses                       0                       # DTB write accesses
system.cpu.dtb.write_hits                           0                       # DTB write hits
system.cpu.dtb.write_misses                         0                       # DTB write misses
system.cpu.fetch.Branches                     2030377                       # Number of branches that fetch encountered
system.cpu.fetch.CacheLines                   1699068                       # Number of cache lines fetched
system.cpu.fetch.Cycles                       2584898                       # Number of cycles fetch has run and was not squashing or blocked
system.cpu.fetch.IcacheSquashes                 18751                       # Number of outstanding Icache misses that were squashed
system.cpu.fetch.Insts                       10706320                       # Number of instructions fetch has processed
system.cpu.fetch.SquashCycles                   81926                       # Number of cycles fetch has spent squashing
system.cpu.fetch.branchRate                  0.333032                       # Number of branch fetches per cycle
system.cpu.fetch.icacheStallCycles            3307509                       # Number of cycles fetch is stalled on an Icache miss
system.cpu.fetch.predictedBranches            1185202                       # Number of branches that fetch has predicted taken
system.cpu.fetch.rate                        1.756101                       # Number of inst fetches per cycle
system.cpu.fetch.rateDist::samples            5933370                       # Number of instructions fetched each cycle (Total)
system.cpu.fetch.rateDist::mean              2.013991                       # Number of instructions fetched each cycle (Total)
system.cpu.fetch.rateDist::stdev             2.940169                       # Number of instructions fetched each cycle (Total)
system.cpu.fetch.rateDist::underflows               0      0.00%      0.00% # Number of instructions fetched each cycle (Total)
system.cpu.fetch.rateDist::0                  3512200     59.19%     59.19% # Number of instructions fetched each cycle (Total)
system.cpu.fetch.rateDist::1                   384033      6.47%     65.67% # Number of instructions fetched each cycle (Total)
system.cpu.fetch.rateDist::2                   163095      2.75%     68.42% # Number of instructions fetched each cycle (Total)
system.cpu.fetch.rateDist::3                   198315      3.34%     71.76% # Number of instructions fetched each cycle (Total)
system.cpu.fetch.rateDist::4                   453189      7.64%     79.40% # Number of instructions fetched each cycle (Total)
system.cpu.fetch.rateDist::5                   122989      2.07%     81.47% # Number of instructions fetched each cycle (Total)
system.cpu.fetch.rateDist::6                   266376      4.49%     85.96% # Number of instructions fetched each cycle (Total)
system.cpu.fetch.rateDist::7                    46756      0.79%     86.75% # Number of instructions fetched each cycle (Total)
system.cpu.fetch.rateDist::8                   786417     13.25%    100.00% # Number of instructions fetched each cycle (Total)
system.cpu.fetch.rateDist::overflows                0      0.00%    100.00% # Number of instructions fetched each cycle (Total)
system.cpu.fetch.rateDist::min_value                0                       # Number of instructions fetched each cycle (Total)
system.cpu.fetch.rateDist::max_value                8                       # Number of instructions fetched each cycle (Total)
system.cpu.fetch.rateDist::total              5933370                       # Number of instructions fetched each cycle (Total)
system.cpu.icache.prefetcher.num_hwpf_issued       255747                       # number of hwpf issued
system.cpu.icache.prefetcher.pfBufferHit      3367721                       # number of redundant prefetches already in prefetch queue
system.cpu.icache.prefetcher.pfIdentified      6279105                       # number of prefetch candidates identified
system.cpu.icache.prefetcher.pfInCache              0                       # number of redundant prefetches already in cache/mshr dropped
system.cpu.icache.prefetcher.pfRemovedFull            0                       # number of prefetches dropped due to prefetch queue size
system.cpu.icache.prefetcher.pfSpanPage      16246428                       # number of prefetches that crossed the page
system.cpu.idleCycles                          163273                       # Total number of cycles that the CPU has spent unscheduled due to idling
system.cpu.iew.branchMispredicts                37844                       # Number of branch mispredicts detected at execute
system.cpu.iew.exec_branches                  1901477                       # Number of branches executed
system.cpu.iew.exec_nop                          8617                       # number of nop insts executed
system.cpu.iew.exec_rate                     1.867918                       # Inst execution rate
system.cpu.iew.exec_refs                      3256075                       # number of memory reference insts executed
system.cpu.iew.exec_stores                    1526871                       # Number of stores executed
system.cpu.iew.exec_swp                             0                       # number of swp insts executed
system.cpu.iew.iewBlockCycles                   29525                       # Number of cycles IEW is blocking
system.cpu.iew.iewDispLoadInsts               1689784                       # Number of dispatched load instructions
system.cpu.iew.iewDispNonSpecInsts              11454                       # Number of dispatched non-speculative instructions
system.cpu.iew.iewDispSquashedInsts             66401                       # Number of squashed instructions skipped by dispatch
system.cpu.iew.iewDispStoreInsts              1566660                       # Number of dispatched store instructions
system.cpu.iew.iewDispatchedInsts            11549283                       # Number of instructions dispatched to IQ
system.cpu.iew.iewExecLoadInsts               1729204                       # Number of load instructions executed
system.cpu.iew.iewExecSquashedInsts             54295                       # Number of squashed instructions skipped in execute
system.cpu.iew.iewExecutedInsts              11388032                       # Number of executed instructions
system.cpu.iew.iewIQFullEvents                      6                       # Number of times the IQ has become full, causing a stall
system.cpu.iew.iewIdleCycles                        0                       # Number of cycles IEW is idle
system.cpu.iew.iewLSQFullEvents                 35151                       # Number of times the LSQ has become full, causing a stall
system.cpu.iew.iewSquashCycles                  37847                       # Number of cycles IEW is squashing
system.cpu.iew.iewUnblockCycles                 35159                       # Number of cycles IEW is unblocking
system.cpu.iew.lsq.thread0.blockedLoads             0                       # Number of blocked loads due to partial load-store forwarding
system.cpu.iew.lsq.thread0.cacheBlocked             0                       # Number of times an access to memory failed due to the cache being blocked
system.cpu.iew.lsq.thread0.forwLoads            96419                       # Number of loads that had data forwarded from stores
system.cpu.iew.lsq.thread0.ignoredResponses           10                       # Number of memory responses ignored because the instruction is squashed
system.cpu.iew.lsq.thread0.invAddrLoads             0                       # Number of loads ignored due to an invalid address
system.cpu.iew.lsq.thread0.invAddrSwpfs             0                       # Number of software prefetches ignored due to an invalid address
system.cpu.iew.lsq.thread0.memOrderViolation           92                       # Number of memory ordering violations
system.cpu.iew.lsq.thread0.rescheduledLoads        67845                       # Number of loads that were rescheduled
system.cpu.iew.lsq.thread0.squashedLoads        66490                       # Number of loads squashed
system.cpu.iew.lsq.thread0.squashedStores        44889                       # Number of stores squashed
system.cpu.iew.memOrderViolationEvents             92                       # Number of memory order violations
system.cpu.iew.predictedNotTakenIncorrect        27914                       # Number of branches that were predicted not taken incorrectly
system.cpu.iew.predictedTakenIncorrect           9930                       # Number of branches that were predicted taken incorrectly
system.cpu.iew.wb_consumers                  10756322                       # num instructions consuming a value
system.cpu.iew.wb_count                      11299248                       # cumulative count of insts written-back
system.cpu.iew.wb_fanout                     0.556850                       # average fanout of values written-back
system.cpu.iew.wb_producers                   5989658                       # num instructions producing a value
system.cpu.iew.wb_rate                       1.853356                       # insts written-back per cycle
system.cpu.iew.wb_sent                       11299977                       # cumulative count of insts sent to commit
system.cpu.int_regfile_reads                 13798877                       # number of integer regfile reads
system.cpu.int_regfile_writes                 8125173                       # number of integer regfile writes
system.cpu.ipc                               1.640247                       # IPC: Instructions Per Cycle
system.cpu.ipc_total                         1.640247                       # IPC: Total IPC of All Threads
system.cpu.iq.FU_type_0::No_OpClass             11433      0.10%      0.10% # Type of FU issued
system.cpu.iq.FU_type_0::IntAlu               7731598     67.57%     67.67% # Type of FU issued
system.cpu.iq.FU_type_0::IntMult               227264      1.99%     69.66% # Type of FU issued
system.cpu.iq.FU_type_0::IntDiv                     5      0.00%     69.66% # Type of FU issued
system.cpu.iq.FU_type_0::FloatAdd                   0      0.00%     69.66% # Type of FU issued
system.cpu.iq.FU_type_0::FloatCmp               11420      0.10%     69.76% # Type of FU issued
system.cpu.iq.FU_type_0::FloatCvt                5710      0.05%     69.81% # Type of FU issued
system.cpu.iq.FU_type_0::FloatMult                  0      0.00%     69.81% # Type of FU issued
system.cpu.iq.FU_type_0::FloatMultAcc               0      0.00%     69.81% # Type of FU issued
system.cpu.iq.FU_type_0::FloatDiv                5710      0.05%     69.86% # Type of FU issued
system.cpu.iq.FU_type_0::FloatMisc              22841      0.20%     70.06% # Type of FU issued
system.cpu.iq.FU_type_0::FloatSqrt                  0      0.00%     70.06% # Type of FU issued
system.cpu.iq.FU_type_0::SimdAdd                22874      0.20%     70.26% # Type of FU issued
system.cpu.iq.FU_type_0::SimdAddAcc                 0      0.00%     70.26% # Type of FU issued
system.cpu.iq.FU_type_0::SimdAlu                45713      0.40%     70.65% # Type of FU issued
system.cpu.iq.FU_type_0::SimdCmp                45716      0.40%     71.05% # Type of FU issued
system.cpu.iq.FU_type_0::SimdCvt                    0      0.00%     71.05% # Type of FU issued
system.cpu.iq.FU_type_0::SimdMisc               36263      0.32%     71.37% # Type of FU issued
system.cpu.iq.FU_type_0::SimdMult                   0      0.00%     71.37% # Type of FU issued
system.cpu.iq.FU_type_0::SimdMultAcc                0      0.00%     71.37% # Type of FU issued
system.cpu.iq.FU_type_0::SimdShift                  0      0.00%     71.37% # Type of FU issued
system.cpu.iq.FU_type_0::SimdShiftAcc               0      0.00%     71.37% # Type of FU issued
system.cpu.iq.FU_type_0::SimdDiv                    0      0.00%     71.37% # Type of FU issued
system.cpu.iq.FU_type_0::SimdSqrt                   0      0.00%     71.37% # Type of FU issued
system.cpu.iq.FU_type_0::SimdFloatAdd               0      0.00%     71.37% # Type of FU issued
system.cpu.iq.FU_type_0::SimdFloatAlu               0      0.00%     71.37% # Type of FU issued
system.cpu.iq.FU_type_0::SimdFloatCmp               0      0.00%     71.37% # Type of FU issued
system.cpu.iq.FU_type_0::SimdFloatCvt               0      0.00%     71.37% # Type of FU issued
system.cpu.iq.FU_type_0::SimdFloatDiv               0      0.00%     71.37% # Type of FU issued
system.cpu.iq.FU_type_0::SimdFloatMisc              0      0.00%     71.37% # Type of FU issued
system.cpu.iq.FU_type_0::SimdFloatMult              0      0.00%     71.37% # Type of FU issued
system.cpu.iq.FU_type_0::SimdFloatMultAcc            0      0.00%     71.37% # Type of FU issued
system.cpu.iq.FU_type_0::SimdFloatSqrt              0      0.00%     71.37% # Type of FU issued
system.cpu.iq.FU_type_0::SimdReduceAdd              0      0.00%     71.37% # Type of FU issued
system.cpu.iq.FU_type_0::SimdReduceAlu              0      0.00%     71.37% # Type of FU issued
system.cpu.iq.FU_type_0::SimdReduceCmp              0      0.00%     71.37% # Type of FU issued
system.cpu.iq.FU_type_0::SimdFloatReduceAdd            0      0.00%     71.37% # Type of FU issued
system.cpu.iq.FU_type_0::SimdFloatReduceCmp            0      0.00%     71.37% # Type of FU issued
system.cpu.iq.FU_type_0::SimdAes                    0      0.00%     71.37% # Type of FU issued
system.cpu.iq.FU_type_0::SimdAesMix                 0      0.00%     71.37% # Type of FU issued
system.cpu.iq.FU_type_0::SimdSha1Hash               0      0.00%     71.37% # Type of FU issued
system.cpu.iq.FU_type_0::SimdSha1Hash2              0      0.00%     71.37% # Type of FU issued
system.cpu.iq.FU_type_0::SimdSha256Hash             0      0.00%     71.37% # Type of FU issued
system.cpu.iq.FU_type_0::SimdSha256Hash2            0      0.00%     71.37% # Type of FU issued
system.cpu.iq.FU_type_0::SimdShaSigma2              0      0.00%     71.37% # Type of FU issued
system.cpu.iq.FU_type_0::SimdShaSigma3              0      0.00%     71.37% # Type of FU issued
system.cpu.iq.FU_type_0::SimdPredAlu                0      0.00%     71.37% # Type of FU issued
system.cpu.iq.FU_type_0::MemRead              1742698     15.23%     86.60% # Type of FU issued
system.cpu.iq.FU_type_0::MemWrite             1533086     13.40%    100.00% # Type of FU issued
system.cpu.iq.FU_type_0::FloatMemRead               0      0.00%    100.00% # Type of FU issued
system.cpu.iq.FU_type_0::FloatMemWrite              0      0.00%    100.00% # Type of FU issued
system.cpu.iq.FU_type_0::IprAccess                  0      0.00%    100.00% # Type of FU issued
system.cpu.iq.FU_type_0::InstPrefetch               0      0.00%    100.00% # Type of FU issued
system.cpu.iq.FU_type_0::total               11442331                       # Type of FU issued
system.cpu.iq.fp_alu_accesses                       0                       # Number of floating point alu accesses
system.cpu.iq.fp_inst_queue_reads                   0                       # Number of floating instruction queue reads
system.cpu.iq.fp_inst_queue_wakeup_accesses            0                       # Number of floating instruction queue wakeup accesses
system.cpu.iq.fp_inst_queue_writes                  0                       # Number of floating instruction queue writes
system.cpu.iq.fu_busy_cnt                      206030                       # FU busy when requested
system.cpu.iq.fu_busy_rate                   0.018006                       # FU busy rate (busy events/executed inst)
system.cpu.iq.fu_full::No_OpClass                   0      0.00%      0.00% # attempts to use FU when none available
system.cpu.iq.fu_full::IntAlu                   21079     10.23%     10.23% # attempts to use FU when none available
system.cpu.iq.fu_full::IntMult                  51099     24.80%     35.03% # attempts to use FU when none available
system.cpu.iq.fu_full::IntDiv                       0      0.00%     35.03% # attempts to use FU when none available
system.cpu.iq.fu_full::FloatAdd                     0      0.00%     35.03% # attempts to use FU when none available
system.cpu.iq.fu_full::FloatCmp                     0      0.00%     35.03% # attempts to use FU when none available
system.cpu.iq.fu_full::FloatCvt                     0      0.00%     35.03% # attempts to use FU when none available
system.cpu.iq.fu_full::FloatMult                    0      0.00%     35.03% # attempts to use FU when none available
system.cpu.iq.fu_full::FloatMultAcc                 0      0.00%     35.03% # attempts to use FU when none available
system.cpu.iq.fu_full::FloatDiv                     0      0.00%     35.03% # attempts to use FU when none available
system.cpu.iq.fu_full::FloatMisc                    0      0.00%     35.03% # attempts to use FU when none available
system.cpu.iq.fu_full::FloatSqrt                    0      0.00%     35.03% # attempts to use FU when none available
system.cpu.iq.fu_full::SimdAdd                      0      0.00%     35.03% # attempts to use FU when none available
system.cpu.iq.fu_full::SimdAddAcc                   0      0.00%     35.03% # attempts to use FU when none available
system.cpu.iq.fu_full::SimdAlu                      1      0.00%     35.03% # attempts to use FU when none available
system.cpu.iq.fu_full::SimdCmp                      2      0.00%     35.03% # attempts to use FU when none available
system.cpu.iq.fu_full::SimdCvt                      0      0.00%     35.03% # attempts to use FU when none available
system.cpu.iq.fu_full::SimdMisc                     0      0.00%     35.03% # attempts to use FU when none available
system.cpu.iq.fu_full::SimdMult                     0      0.00%     35.03% # attempts to use FU when none available
system.cpu.iq.fu_full::SimdMultAcc                  0      0.00%     35.03% # attempts to use FU when none available
system.cpu.iq.fu_full::SimdShift                    0      0.00%     35.03% # attempts to use FU when none available
system.cpu.iq.fu_full::SimdShiftAcc                 0      0.00%     35.03% # attempts to use FU when none available
system.cpu.iq.fu_full::SimdDiv                      0      0.00%     35.03% # attempts to use FU when none available
system.cpu.iq.fu_full::SimdSqrt                     0      0.00%     35.03% # attempts to use FU when none available
system.cpu.iq.fu_full::SimdFloatAdd                 0      0.00%     35.03% # attempts to use FU when none available
system.cpu.iq.fu_full::SimdFloatAlu                 0      0.00%     35.03% # attempts to use FU when none available
system.cpu.iq.fu_full::SimdFloatCmp                 0      0.00%     35.03% # attempts to use FU when none available
system.cpu.iq.fu_full::SimdFloatCvt                 0      0.00%     35.03% # attempts to use FU when none available
system.cpu.iq.fu_full::SimdFloatDiv                 0      0.00%     35.03% # attempts to use FU when none available
system.cpu.iq.fu_full::SimdFloatMisc                0      0.00%     35.03% # attempts to use FU when none available
system.cpu.iq.fu_full::SimdFloatMult                0      0.00%     35.03% # attempts to use FU when none available
system.cpu.iq.fu_full::SimdFloatMultAcc             0      0.00%     35.03% # attempts to use FU when none available
system.cpu.iq.fu_full::SimdFloatSqrt                0      0.00%     35.03% # attempts to use FU when none available
system.cpu.iq.fu_full::SimdReduceAdd                0      0.00%     35.03% # attempts to use FU when none available
system.cpu.iq.fu_full::SimdReduceAlu                0      0.00%     35.03% # attempts to use FU when none available
system.cpu.iq.fu_full::SimdReduceCmp                0      0.00%     35.03% # attempts to use FU when none available
system.cpu.iq.fu_full::SimdFloatReduceAdd            0      0.00%     35.03% # attempts to use FU when none available
system.cpu.iq.fu_full::SimdFloatReduceCmp            0      0.00%     35.03% # attempts to use FU when none available
system.cpu.iq.fu_full::SimdAes                      0      0.00%     35.03% # attempts to use FU when none available
system.cpu.iq.fu_full::SimdAesMix                   0      0.00%     35.03% # attempts to use FU when none available
system.cpu.iq.fu_full::SimdSha1Hash                 0      0.00%     35.03% # attempts to use FU when none available
system.cpu.iq.fu_full::SimdSha1Hash2                0      0.00%     35.03% # attempts to use FU when none available
system.cpu.iq.fu_full::SimdSha256Hash               0      0.00%     35.03% # attempts to use FU when none available
system.cpu.iq.fu_full::SimdSha256Hash2              0      0.00%     35.03% # attempts to use FU when none available
system.cpu.iq.fu_full::SimdShaSigma2                0      0.00%     35.03% # attempts to use FU when none available
system.cpu.iq.fu_full::SimdShaSigma3                0      0.00%     35.03% # attempts to use FU when none available
system.cpu.iq.fu_full::SimdPredAlu                  0      0.00%     35.03% # attempts to use FU when none available
system.cpu.iq.fu_full::MemRead                  67437     32.73%     67.77% # attempts to use FU when none available
system.cpu.iq.fu_full::MemWrite                 66412     32.23%    100.00% # attempts to use FU when none available
system.cpu.iq.fu_full::FloatMemRead                 0      0.00%    100.00% # attempts to use FU when none available
system.cpu.iq.fu_full::FloatMemWrite                0      0.00%    100.00% # attempts to use FU when none available
system.cpu.iq.fu_full::IprAccess                    0      0.00%    100.00% # attempts to use FU when none available
system.cpu.iq.fu_full::InstPrefetch                 0      0.00%    100.00% # attempts to use FU when none available
system.cpu.iq.int_alu_accesses               11289280                       # Number of integer alu accesses
system.cpu.iq.int_inst_queue_reads           28325888                       # Number of integer instruction queue reads
system.cpu.iq.int_inst_queue_wakeup_accesses     10962094                       # Number of integer instruction queue wakeup accesses
system.cpu.iq.int_inst_queue_writes          11599745                       # Number of integer instruction queue writes
system.cpu.iq.iqInstsAdded                   11529212                       # Number of instructions added to the IQ (excludes non-spec)
system.cpu.iq.iqInstsIssued                  11442331                       # Number of instructions issued
system.cpu.iq.iqNonSpecInstsAdded               11454                       # Number of non-speculative instructions added to the IQ
system.cpu.iq.iqSquashedInstsExamined          408259                       # Number of squashed instructions iterated over during squash; mainly for profiling
system.cpu.iq.iqSquashedInstsIssued                77                       # Number of squashed instructions issued
system.cpu.iq.iqSquashedNonSpecRemoved             13                       # Number of squashed non-spec instructions that were removed
system.cpu.iq.iqSquashedOperandsExamined       387834                       # Number of squashed operands that are examined and possibly removed from graph
system.cpu.iq.issued_per_cycle::samples       5933370                       # Number of insts issued each cycle
system.cpu.iq.issued_per_cycle::mean         1.928471                       # Number of insts issued each cycle
system.cpu.iq.issued_per_cycle::stdev        2.008559                       # Number of insts issued each cycle
system.cpu.iq.issued_per_cycle::underflows            0      0.00%      0.00% # Number of insts issued each cycle
system.cpu.iq.issued_per_cycle::0             2125170     35.82%     35.82% # Number of insts issued each cycle
system.cpu.iq.issued_per_cycle::1              873579     14.72%     50.54% # Number of insts issued each cycle
system.cpu.iq.issued_per_cycle::2              849826     14.32%     64.86% # Number of insts issued each cycle
system.cpu.iq.issued_per_cycle::3              849785     14.32%     79.19% # Number of insts issued each cycle
system.cpu.iq.issued_per_cycle::4              514403      8.67%     87.86% # Number of insts issued each cycle
system.cpu.iq.issued_per_cycle::5              290348      4.89%     92.75% # Number of insts issued each cycle
system.cpu.iq.issued_per_cycle::6              265875      4.48%     97.23% # Number of insts issued each cycle
system.cpu.iq.issued_per_cycle::7               99929      1.68%     98.91% # Number of insts issued each cycle
system.cpu.iq.issued_per_cycle::8               64455      1.09%    100.00% # Number of insts issued each cycle
system.cpu.iq.issued_per_cycle::overflows            0      0.00%    100.00% # Number of insts issued each cycle
system.cpu.iq.issued_per_cycle::min_value            0                       # Number of insts issued each cycle
system.cpu.iq.issued_per_cycle::max_value            8                       # Number of insts issued each cycle
system.cpu.iq.issued_per_cycle::total         5933370                       # Number of insts issued each cycle
system.cpu.iq.rate                           1.876825                       # Inst issue rate
system.cpu.iq.vec_alu_accesses                 347648                       # Number of vector alu accesses
system.cpu.iq.vec_inst_queue_reads             698247                       # Number of vector instruction queue reads
system.cpu.iq.vec_inst_queue_wakeup_accesses       337154                       # Number of vector instruction queue wakeup accesses
system.cpu.iq.vec_inst_queue_writes            349250                       # Number of vector instruction queue writes
system.cpu.itb.accesses                             0                       # DTB accesses
system.cpu.itb.align_faults                         0                       # Number of TLB faults due to alignment restrictions
system.cpu.itb.domain_faults                        0                       # Number of TLB faults due to domain restrictions
system.cpu.itb.flush_entries                        0                       # Number of entries that have been flushed from TLB
system.cpu.itb.flush_tlb                            0                       # Number of times complete TLB was flushed
system.cpu.itb.flush_tlb_asid                       0                       # Number of times TLB was flushed by ASID
system.cpu.itb.flush_tlb_mva                        0                       # Number of times TLB was flushed by MVA
system.cpu.itb.flush_tlb_mva_asid                   0                       # Number of times TLB was flushed by MVA & ASID
system.cpu.itb.hits                                 0                       # DTB hits
system.cpu.itb.inst_accesses                        0                       # ITB inst accesses
system.cpu.itb.inst_hits                            0                       # ITB inst hits
system.cpu.itb.inst_misses                          0                       # ITB inst misses
system.cpu.itb.misses                               0                       # DTB misses
system.cpu.itb.perms_faults                         0                       # Number of TLB faults due to permissions restrictions
system.cpu.itb.prefetch_faults                      0                       # Number of TLB faults due to prefetch
system.cpu.itb.read_accesses                        0                       # DTB read accesses
system.cpu.itb.read_hits                            0                       # DTB read hits
system.cpu.itb.read_misses                          0                       # DTB read misses
system.cpu.itb.stage2_mmu.stage2_tlb.accesses            0                       # DTB accesses
system.cpu.itb.stage2_mmu.stage2_tlb.align_faults            0                       # Number of TLB faults due to alignment restrictions
system.cpu.itb.stage2_mmu.stage2_tlb.domain_faults            0                       # Number of TLB faults due to domain restrictions
system.cpu.itb.stage2_mmu.stage2_tlb.flush_entries            0                       # Number of entries that have been flushed from TLB
system.cpu.itb.stage2_mmu.stage2_tlb.flush_tlb            0                       # Number of times complete TLB was flushed
system.cpu.itb.stage2_mmu.stage2_tlb.flush_tlb_asid            0                       # Number of times TLB was flushed by ASID
system.cpu.itb.stage2_mmu.stage2_tlb.flush_tlb_mva            0                       # Number of times TLB was flushed by MVA
system.cpu.itb.stage2_mmu.stage2_tlb.flush_tlb_mva_asid            0                       # Number of times TLB was flushed by MVA & ASID
system.cpu.itb.stage2_mmu.stage2_tlb.hits            0                       # DTB hits
system.cpu.itb.stage2_mmu.stage2_tlb.inst_accesses            0                       # ITB inst accesses
system.cpu.itb.stage2_mmu.stage2_tlb.inst_hits            0                       # ITB inst hits
system.cpu.itb.stage2_mmu.stage2_tlb.inst_misses            0                       # ITB inst misses
system.cpu.itb.stage2_mmu.stage2_tlb.misses            0                       # DTB misses
system.cpu.itb.stage2_mmu.stage2_tlb.perms_faults            0                       # Number of TLB faults due to permissions restrictions
system.cpu.itb.stage2_mmu.stage2_tlb.prefetch_faults            0                       # Number of TLB faults due to prefetch
system.cpu.itb.stage2_mmu.stage2_tlb.read_accesses            0                       # DTB read accesses
system.cpu.itb.stage2_mmu.stage2_tlb.read_hits            0                       # DTB read hits
system.cpu.itb.stage2_mmu.stage2_tlb.read_misses            0                       # DTB read misses
system.cpu.itb.stage2_mmu.stage2_tlb.walker.walkRequestOrigin_Requested::Data            0                       # Table walker requests started/completed, data/inst
system.cpu.itb.stage2_mmu.stage2_tlb.walker.walkRequestOrigin_Requested::Inst            0                       # Table walker requests started/completed, data/inst
system.cpu.itb.stage2_mmu.stage2_tlb.walker.walkRequestOrigin_Requested::total            0                       # Table walker requests started/completed, data/inst
system.cpu.itb.stage2_mmu.stage2_tlb.walker.walkRequestOrigin_Completed::Data            0                       # Table walker requests started/completed, data/inst
system.cpu.itb.stage2_mmu.stage2_tlb.walker.walkRequestOrigin_Completed::Inst            0                       # Table walker requests started/completed, data/inst
system.cpu.itb.stage2_mmu.stage2_tlb.walker.walkRequestOrigin_Completed::total            0                       # Table walker requests started/completed, data/inst
system.cpu.itb.stage2_mmu.stage2_tlb.walker.walkRequestOrigin::total            0                       # Table walker requests started/completed, data/inst
system.cpu.itb.stage2_mmu.stage2_tlb.walker.walks            0                       # Table walker walks requested
system.cpu.itb.stage2_mmu.stage2_tlb.write_accesses            0                       # DTB write accesses
system.cpu.itb.stage2_mmu.stage2_tlb.write_hits            0                       # DTB write hits
system.cpu.itb.stage2_mmu.stage2_tlb.write_misses            0                       # DTB write misses
system.cpu.itb.walker.walkRequestOrigin_Requested::Data            0                       # Table walker requests started/completed, data/inst
system.cpu.itb.walker.walkRequestOrigin_Requested::Inst            0                       # Table walker requests started/completed, data/inst
system.cpu.itb.walker.walkRequestOrigin_Requested::total            0                       # Table walker requests started/completed, data/inst
system.cpu.itb.walker.walkRequestOrigin_Completed::Data            0                       # Table walker requests started/completed, data/inst
system.cpu.itb.walker.walkRequestOrigin_Completed::Inst            0                       # Table walker requests started/completed, data/inst
system.cpu.itb.walker.walkRequestOrigin_Completed::total            0                       # Table walker requests started/completed, data/inst
system.cpu.itb.walker.walkRequestOrigin::total            0                       # Table walker requests started/completed, data/inst
system.cpu.itb.walker.walks                         0                       # Table walker walks requested
system.cpu.itb.write_accesses                       0                       # DTB write accesses
system.cpu.itb.write_hits                           0                       # DTB write hits
system.cpu.itb.write_misses                         0                       # DTB write misses
system.cpu.memDep0.conflictingLoads             79669                       # Number of conflicting loads.
system.cpu.memDep0.conflictingStores            57835                       # Number of conflicting stores.
system.cpu.memDep0.insertedLoads              1689784                       # Number of loads inserted to the mem dependence unit.
system.cpu.memDep0.insertedStores             1566660                       # Number of stores inserted to the mem dependence unit.
system.cpu.misc_regfile_reads                 8154931                       # number of misc regfile reads
system.cpu.misc_regfile_writes                  74259                       # number of misc regfile writes
system.cpu.numCycles                          6096643                       # number of cpu cycles simulated
system.cpu.numWorkItemsCompleted                    0                       # number of work items this cpu completed
system.cpu.numWorkItemsStarted                      0                       # number of work items this cpu started
system.cpu.rename.BlockCycles                   64700                       # Number of cycles rename is blocking
system.cpu.rename.CommittedMaps              11692981                       # Number of HB maps that are committed
system.cpu.rename.IQFullEvents                   3139                       # Number of times rename has blocked due to IQ full
system.cpu.rename.IdleCycles                  2961244                       # Number of cycles rename is idle
system.cpu.rename.RenameLookups              19178270                       # Number of register rename lookups that rename has made
system.cpu.rename.RenamedInsts               11740526                       # Number of instructions processed by rename
system.cpu.rename.RenamedOperands            12384900                       # Number of destination operands rename has renamed
system.cpu.rename.RunCycles                   2288813                       # Number of cycles rename is running
system.cpu.rename.SQFullEvents                 112202                       # Number of times rename has blocked due to SQ full
system.cpu.rename.SquashCycles                  37847                       # Number of cycles rename is squashing
system.cpu.rename.UnblockCycles                167513                       # Number of cycles rename is unblocking
system.cpu.rename.UndoneMaps                   691889                       # Number of HB maps that are undone due to squashing
system.cpu.rename.int_rename_lookups         14168173                       # Number of integer rename lookups
system.cpu.rename.serializeStallCycles         413253                       # count of cycles rename stalled for serializing inst
system.cpu.rename.serializingInsts              40284                       # count of serializing insts renamed
system.cpu.rename.skidInsts                    347322                       # count of insts added to the skid buffer
system.cpu.rename.tempSerializingInsts          11459                       # count of temporary serializing insts renamed
system.cpu.rename.vec_rename_lookups           435797                       # Number of vector rename lookups
system.cpu.rob.rob_reads                     16818818                       # The number of ROB reads
system.cpu.rob.rob_writes                    23165433                       # The number of ROB writes
system.cpu.timesIdled                           34202                       # Number of times that the entire CPU went into an idle state and unscheduled itself
system.cpu.vec_regfile_reads                   394319                       # number of vector regfile reads
system.cpu.vec_regfile_writes                  222869                       # number of vector regfile writes
system.cpu.workload.numSyscalls                    13                       # Number of system calls
system.membus.snoop_filter.hit_multi_requests            0                       # Number of requests hitting in the snoop filter with multiple (>1) holders of the requested data.
system.membus.snoop_filter.hit_multi_snoops            0                       # Number of snoops hitting in the snoop filter with multiple (>1) holders of the requested data.
system.membus.snoop_filter.hit_single_requests            0                       # Number of requests hitting in the snoop filter with a single holder of the requested data.
system.membus.snoop_filter.hit_single_snoops            0                       # Number of snoops hitting in the snoop filter with a single holder of the requested data.
system.membus.snoop_filter.tot_requests           887                       # Total number of requests made to the snoop filter.
system.membus.snoop_filter.tot_snoops               0                       # Total number of snoops made to the snoop filter.
system.tol2bus.snoop_filter.hit_multi_requests            1                       # Number of requests hitting in the snoop filter with multiple (>1) holders of the requested data.
system.tol2bus.snoop_filter.hit_multi_snoops            0                       # Number of snoops hitting in the snoop filter with multiple (>1) holders of the requested data.
system.tol2bus.snoop_filter.hit_single_requests       119087                       # Number of requests hitting in the snoop filter with a single holder of the requested data.
system.tol2bus.snoop_filter.hit_single_snoops            0                       # Number of snoops hitting in the snoop filter with a single holder of the requested data.
system.tol2bus.snoop_filter.tot_requests       238770                       # Total number of requests made to the snoop filter.
system.tol2bus.snoop_filter.tot_snoops              0                       # Total number of snoops made to the snoop filter.
system.membus.trans_dist::ReadResp                647                       # Transaction distribution
system.membus.trans_dist::ReadExReq               232                       # Transaction distribution
system.membus.trans_dist::ReadExResp              232                       # Transaction distribution
system.membus.trans_dist::ReadSharedReq           647                       # Transaction distribution
system.membus.trans_dist::InvalidateReq             8                       # Transaction distribution
system.membus.pkt_count_system.l2.mem_side::system.mem_ctrls.port         1766                       # Packet count per connected master and slave (bytes)
system.membus.pkt_count::total                   1766                       # Packet count per connected master and slave (bytes)
system.membus.pkt_size_system.l2.mem_side::system.mem_ctrls.port        56256                       # Cumulative packet size per connected master and slave (bytes)
system.membus.pkt_size::total                   56256                       # Cumulative packet size per connected master and slave (bytes)
system.membus.snoops                                0                       # Total snoops (count)
system.membus.snoopTraffic                          0                       # Total snoop traffic (bytes)
system.membus.snoop_fanout::samples               887                       # Request fanout histogram
system.membus.snoop_fanout::mean                    0                       # Request fanout histogram
system.membus.snoop_fanout::stdev                   0                       # Request fanout histogram
system.membus.snoop_fanout::underflows              0      0.00%      0.00% # Request fanout histogram
system.membus.snoop_fanout::0                     887    100.00%    100.00% # Request fanout histogram
system.membus.snoop_fanout::1                       0      0.00%    100.00% # Request fanout histogram
system.membus.snoop_fanout::overflows               0      0.00%    100.00% # Request fanout histogram
system.membus.snoop_fanout::min_value               0                       # Request fanout histogram
system.membus.snoop_fanout::max_value               0                       # Request fanout histogram
system.membus.snoop_fanout::total                 887                       # Request fanout histogram
system.membus.reqLayer0.occupancy             1093500                       # Layer occupancy (ticks)
system.membus.reqLayer0.utilization               0.0                       # Layer utilization (%)
system.membus.respLayer1.occupancy            4669750                       # Layer occupancy (ticks)
system.membus.respLayer1.utilization              0.2                       # Layer utilization (%)
system.membus.power_state.pwrStateResidencyTicks::UNDEFINED   3048321000                       # Cumulative time (in ticks) in various power states
system.tol2bus.trans_dist::ReadResp            119443                       # Transaction distribution
system.tol2bus.trans_dist::WritebackClean       119087                       # Transaction distribution
system.tol2bus.trans_dist::ReadExReq              232                       # Transaction distribution
system.tol2bus.trans_dist::ReadExResp             232                       # Transaction distribution
system.tol2bus.trans_dist::ReadCleanReq        119336                       # Transaction distribution
system.tol2bus.trans_dist::ReadSharedReq          107                       # Transaction distribution
system.tol2bus.trans_dist::InvalidateReq            8                       # Transaction distribution
system.tol2bus.trans_dist::InvalidateResp            8                       # Transaction distribution
system.tol2bus.pkt_count_system.cpu.icache.mem_side::system.l2.cpu_side       357759                       # Packet count per connected master and slave (bytes)
system.tol2bus.pkt_count_system.cpu.dcache.mem_side::system.l2.cpu_side          694                       # Packet count per connected master and slave (bytes)
system.tol2bus.pkt_count::total                358453                       # Packet count per connected master and slave (bytes)
system.tol2bus.pkt_size_system.cpu.icache.mem_side::system.l2.cpu_side     15259072                       # Cumulative packet size per connected master and slave (bytes)
system.tol2bus.pkt_size_system.cpu.dcache.mem_side::system.l2.cpu_side        21696                       # Cumulative packet size per connected master and slave (bytes)
system.tol2bus.pkt_size::total               15280768                       # Cumulative packet size per connected master and slave (bytes)
system.tol2bus.snoops                               0                       # Total snoops (count)
system.tol2bus.snoopTraffic                         0                       # Total snoop traffic (bytes)
system.tol2bus.snoop_fanout::samples           119683                       # Request fanout histogram
system.tol2bus.snoop_fanout::mean            0.000008                       # Request fanout histogram
system.tol2bus.snoop_fanout::stdev           0.002891                       # Request fanout histogram
system.tol2bus.snoop_fanout::underflows             0      0.00%      0.00% # Request fanout histogram
system.tol2bus.snoop_fanout::0                 119682    100.00%    100.00% # Request fanout histogram
system.tol2bus.snoop_fanout::1                      1      0.00%    100.00% # Request fanout histogram
system.tol2bus.snoop_fanout::2                      0      0.00%    100.00% # Request fanout histogram
system.tol2bus.snoop_fanout::overflows              0      0.00%    100.00% # Request fanout histogram
system.tol2bus.snoop_fanout::min_value              0                       # Request fanout histogram
system.tol2bus.snoop_fanout::max_value              1                       # Request fanout histogram
system.tol2bus.snoop_fanout::total             119683                       # Request fanout histogram
system.tol2bus.reqLayer0.occupancy          253523404                       # Layer occupancy (ticks)
system.tol2bus.reqLayer0.utilization              8.3                       # Layer utilization (%)
system.tol2bus.respLayer1.occupancy            512500                       # Layer occupancy (ticks)
system.tol2bus.respLayer1.utilization             0.0                       # Layer utilization (%)
system.tol2bus.respLayer0.occupancy         179004000                       # Layer occupancy (ticks)
system.tol2bus.respLayer0.utilization             5.9                       # Layer utilization (%)
system.tol2bus.power_state.pwrStateResidencyTicks::UNDEFINED   3048321000                       # Cumulative time (in ticks) in various power states
system.voltage_domain.voltage                       1                       # Voltage in Volts
system.clk_domain.clock                          1000                       # Clock period in ticks
system.l2.demand_hits::.cpu.inst                65977                       # number of demand (read+write) hits
system.l2.demand_hits::.cpu.icache.prefetcher        52819                       # number of demand (read+write) hits
system.l2.demand_hits::total                   118796                       # number of demand (read+write) hits
system.l2.overall_hits::.cpu.inst               65977                       # number of overall hits
system.l2.overall_hits::.cpu.icache.prefetcher        52819                       # number of overall hits
system.l2.overall_hits::total                  118796                       # number of overall hits
system.l2.demand_misses::.cpu.inst                540                       # number of demand (read+write) misses
system.l2.demand_misses::.cpu.data                339                       # number of demand (read+write) misses
system.l2.demand_misses::total                    879                       # number of demand (read+write) misses
system.l2.overall_misses::.cpu.inst               540                       # number of overall misses
system.l2.overall_misses::.cpu.data               339                       # number of overall misses
system.l2.overall_misses::total                   879                       # number of overall misses
system.l2.demand_miss_latency::.cpu.inst     43919000                       # number of demand (read+write) miss cycles
system.l2.demand_miss_latency::.cpu.data     28934000                       # number of demand (read+write) miss cycles
system.l2.demand_miss_latency::total         72853000                       # number of demand (read+write) miss cycles
system.l2.overall_miss_latency::.cpu.inst     43919000                       # number of overall miss cycles
system.l2.overall_miss_latency::.cpu.data     28934000                       # number of overall miss cycles
system.l2.overall_miss_latency::total        72853000                       # number of overall miss cycles
system.l2.demand_accesses::.cpu.inst            66517                       # number of demand (read+write) accesses
system.l2.demand_accesses::.cpu.data              339                       # number of demand (read+write) accesses
system.l2.demand_accesses::.cpu.icache.prefetcher        52819                       # number of demand (read+write) accesses
system.l2.demand_accesses::total               119675                       # number of demand (read+write) accesses
system.l2.overall_accesses::.cpu.inst           66517                       # number of overall (read+write) accesses
system.l2.overall_accesses::.cpu.data             339                       # number of overall (read+write) accesses
system.l2.overall_accesses::.cpu.icache.prefetcher        52819                       # number of overall (read+write) accesses
system.l2.overall_accesses::total              119675                       # number of overall (read+write) accesses
system.l2.demand_miss_rate::.cpu.inst        0.008118                       # miss rate for demand accesses
system.l2.demand_miss_rate::.cpu.data               1                       # miss rate for demand accesses
system.l2.demand_miss_rate::total            0.007345                       # miss rate for demand accesses
system.l2.overall_miss_rate::.cpu.inst       0.008118                       # miss rate for overall accesses
system.l2.overall_miss_rate::.cpu.data              1                       # miss rate for overall accesses
system.l2.overall_miss_rate::total           0.007345                       # miss rate for overall accesses
system.l2.demand_avg_miss_latency::.cpu.inst 81331.481481                       # average overall miss latency
system.l2.demand_avg_miss_latency::.cpu.data 85351.032448                       # average overall miss latency
system.l2.demand_avg_miss_latency::total 82881.683732                       # average overall miss latency
system.l2.overall_avg_miss_latency::.cpu.inst 81331.481481                       # average overall miss latency
system.l2.overall_avg_miss_latency::.cpu.data 85351.032448                       # average overall miss latency
system.l2.overall_avg_miss_latency::total 82881.683732                       # average overall miss latency
system.l2.blocked_cycles::no_mshrs                  0                       # number of cycles access was blocked
system.l2.blocked_cycles::no_targets                0                       # number of cycles access was blocked
system.l2.blocked::no_mshrs                         0                       # number of cycles access was blocked
system.l2.blocked::no_targets                       0                       # number of cycles access was blocked
system.l2.avg_blocked_cycles::no_mshrs            nan                       # average number of cycles each access was blocked
system.l2.avg_blocked_cycles::no_targets          nan                       # average number of cycles each access was blocked
system.l2.demand_mshr_misses::.cpu.inst           540                       # number of demand (read+write) MSHR misses
system.l2.demand_mshr_misses::.cpu.data           339                       # number of demand (read+write) MSHR misses
system.l2.demand_mshr_misses::total               879                       # number of demand (read+write) MSHR misses
system.l2.overall_mshr_misses::.cpu.inst          540                       # number of overall MSHR misses
system.l2.overall_mshr_misses::.cpu.data          339                       # number of overall MSHR misses
system.l2.overall_mshr_misses::total              879                       # number of overall MSHR misses
system.l2.demand_mshr_miss_latency::.cpu.inst     38519000                       # number of demand (read+write) MSHR miss cycles
system.l2.demand_mshr_miss_latency::.cpu.data     25544000                       # number of demand (read+write) MSHR miss cycles
system.l2.demand_mshr_miss_latency::total     64063000                       # number of demand (read+write) MSHR miss cycles
system.l2.overall_mshr_miss_latency::.cpu.inst     38519000                       # number of overall MSHR miss cycles
system.l2.overall_mshr_miss_latency::.cpu.data     25544000                       # number of overall MSHR miss cycles
system.l2.overall_mshr_miss_latency::total     64063000                       # number of overall MSHR miss cycles
system.l2.demand_mshr_miss_rate::.cpu.inst     0.008118                       # mshr miss rate for demand accesses
system.l2.demand_mshr_miss_rate::.cpu.data            1                       # mshr miss rate for demand accesses
system.l2.demand_mshr_miss_rate::total       0.007345                       # mshr miss rate for demand accesses
system.l2.overall_mshr_miss_rate::.cpu.inst     0.008118                       # mshr miss rate for overall accesses
system.l2.overall_mshr_miss_rate::.cpu.data            1                       # mshr miss rate for overall accesses
system.l2.overall_mshr_miss_rate::total      0.007345                       # mshr miss rate for overall accesses
system.l2.demand_avg_mshr_miss_latency::.cpu.inst 71331.481481                       # average overall mshr miss latency
system.l2.demand_avg_mshr_miss_latency::.cpu.data 75351.032448                       # average overall mshr miss latency
system.l2.demand_avg_mshr_miss_latency::total 72881.683732                       # average overall mshr miss latency
system.l2.overall_avg_mshr_miss_latency::.cpu.inst 71331.481481                       # average overall mshr miss latency
system.l2.overall_avg_mshr_miss_latency::.cpu.data 75351.032448                       # average overall mshr miss latency
system.l2.overall_avg_mshr_miss_latency::total 72881.683732                       # average overall mshr miss latency
system.l2.replacements                              0                       # number of replacements
system.l2.WritebackClean_hits::.writebacks       119086                       # number of WritebackClean hits
system.l2.WritebackClean_hits::total           119086                       # number of WritebackClean hits
system.l2.WritebackClean_accesses::.writebacks       119086                       # number of WritebackClean accesses(hits+misses)
system.l2.WritebackClean_accesses::total       119086                       # number of WritebackClean accesses(hits+misses)
system.l2.ReadExReq_misses::.cpu.data             232                       # number of ReadExReq misses
system.l2.ReadExReq_misses::total                 232                       # number of ReadExReq misses
system.l2.ReadExReq_miss_latency::.cpu.data     18746000                       # number of ReadExReq miss cycles
system.l2.ReadExReq_miss_latency::total      18746000                       # number of ReadExReq miss cycles
system.l2.ReadExReq_accesses::.cpu.data           232                       # number of ReadExReq accesses(hits+misses)
system.l2.ReadExReq_accesses::total               232                       # number of ReadExReq accesses(hits+misses)
system.l2.ReadExReq_miss_rate::.cpu.data            1                       # miss rate for ReadExReq accesses
system.l2.ReadExReq_miss_rate::total                1                       # miss rate for ReadExReq accesses
system.l2.ReadExReq_avg_miss_latency::.cpu.data 80801.724138                       # average ReadExReq miss latency
system.l2.ReadExReq_avg_miss_latency::total 80801.724138                       # average ReadExReq miss latency
system.l2.ReadExReq_mshr_misses::.cpu.data          232                       # number of ReadExReq MSHR misses
system.l2.ReadExReq_mshr_misses::total            232                       # number of ReadExReq MSHR misses
system.l2.ReadExReq_mshr_miss_latency::.cpu.data     16426000                       # number of ReadExReq MSHR miss cycles
system.l2.ReadExReq_mshr_miss_latency::total     16426000                       # number of ReadExReq MSHR miss cycles
system.l2.ReadExReq_mshr_miss_rate::.cpu.data            1                       # mshr miss rate for ReadExReq accesses
system.l2.ReadExReq_mshr_miss_rate::total            1                       # mshr miss rate for ReadExReq accesses
system.l2.ReadExReq_avg_mshr_miss_latency::.cpu.data 70801.724138                       # average ReadExReq mshr miss latency
system.l2.ReadExReq_avg_mshr_miss_latency::total 70801.724138                       # average ReadExReq mshr miss latency
system.l2.ReadCleanReq_hits::.cpu.inst          65977                       # number of ReadCleanReq hits
system.l2.ReadCleanReq_hits::.cpu.icache.prefetcher        52819                       # number of ReadCleanReq hits
system.l2.ReadCleanReq_hits::total             118796                       # number of ReadCleanReq hits
system.l2.ReadCleanReq_misses::.cpu.inst          540                       # number of ReadCleanReq misses
system.l2.ReadCleanReq_misses::total              540                       # number of ReadCleanReq misses
system.l2.ReadCleanReq_miss_latency::.cpu.inst     43919000                       # number of ReadCleanReq miss cycles
system.l2.ReadCleanReq_miss_latency::total     43919000                       # number of ReadCleanReq miss cycles
system.l2.ReadCleanReq_accesses::.cpu.inst        66517                       # number of ReadCleanReq accesses(hits+misses)
system.l2.ReadCleanReq_accesses::.cpu.icache.prefetcher        52819                       # number of ReadCleanReq accesses(hits+misses)
system.l2.ReadCleanReq_accesses::total         119336                       # number of ReadCleanReq accesses(hits+misses)
system.l2.ReadCleanReq_miss_rate::.cpu.inst     0.008118                       # miss rate for ReadCleanReq accesses
system.l2.ReadCleanReq_miss_rate::total      0.004525                       # miss rate for ReadCleanReq accesses
system.l2.ReadCleanReq_avg_miss_latency::.cpu.inst 81331.481481                       # average ReadCleanReq miss latency
system.l2.ReadCleanReq_avg_miss_latency::total 81331.481481                       # average ReadCleanReq miss latency
system.l2.ReadCleanReq_mshr_misses::.cpu.inst          540                       # number of ReadCleanReq MSHR misses
system.l2.ReadCleanReq_mshr_misses::total          540                       # number of ReadCleanReq MSHR misses
system.l2.ReadCleanReq_mshr_miss_latency::.cpu.inst     38519000                       # number of ReadCleanReq MSHR miss cycles
system.l2.ReadCleanReq_mshr_miss_latency::total     38519000                       # number of ReadCleanReq MSHR miss cycles
system.l2.ReadCleanReq_mshr_miss_rate::.cpu.inst     0.008118                       # mshr miss rate for ReadCleanReq accesses
system.l2.ReadCleanReq_mshr_miss_rate::total     0.004525                       # mshr miss rate for ReadCleanReq accesses
system.l2.ReadCleanReq_avg_mshr_miss_latency::.cpu.inst 71331.481481                       # average ReadCleanReq mshr miss latency
system.l2.ReadCleanReq_avg_mshr_miss_latency::total 71331.481481                       # average ReadCleanReq mshr miss latency
system.l2.ReadSharedReq_misses::.cpu.data          107                       # number of ReadSharedReq misses
[...]
system.cpu.dcache.overall_misses::total          1655                       # number of overall misses
system.cpu.dcache.demand_miss_latency::.cpu.data    111229000                       # number of demand (read+write) miss cycles
system.cpu.dcache.demand_miss_latency::total    111229000                       # number of demand (read+write) miss cycles
system.cpu.dcache.overall_miss_latency::.cpu.data    111229000                       # number of overall miss cycles
system.cpu.dcache.overall_miss_latency::total    111229000                       # number of overall miss cycles
system.cpu.dcache.demand_accesses::.cpu.data      3052420                       # number of demand (read+write) accesses
system.cpu.dcache.demand_accesses::total      3052420                       # number of demand (read+write) accesses
system.cpu.dcache.overall_accesses::.cpu.data      3063850                       # number of overall (read+write) accesses
system.cpu.dcache.overall_accesses::total      3063850                       # number of overall (read+write) accesses
system.cpu.dcache.demand_miss_rate::.cpu.data     0.000542                       # miss rate for demand accesses
system.cpu.dcache.demand_miss_rate::total     0.000542                       # miss rate for demand accesses
system.cpu.dcache.overall_miss_rate::.cpu.data     0.000540                       # miss rate for overall accesses
system.cpu.dcache.overall_miss_rate::total     0.000540                       # miss rate for overall accesses
system.cpu.dcache.demand_avg_miss_latency::.cpu.data 67289.171204                       # average overall miss latency
system.cpu.dcache.demand_avg_miss_latency::total 67289.171204                       # average overall miss latency
system.cpu.dcache.overall_avg_miss_latency::.cpu.data 67207.854985                       # average overall miss latency
system.cpu.dcache.overall_avg_miss_latency::total 67207.854985                       # average overall miss latency
system.cpu.dcache.blocked_cycles::no_mshrs            0                       # number of cycles access was blocked
system.cpu.dcache.blocked_cycles::no_targets            0                       # number of cycles access was blocked
system.cpu.dcache.blocked::no_mshrs                 0                       # number of cycles access was blocked
system.cpu.dcache.blocked::no_targets               0                       # number of cycles access was blocked
system.cpu.dcache.avg_blocked_cycles::no_mshrs          nan                       # average number of cycles each access was blocked
system.cpu.dcache.avg_blocked_cycles::no_targets          nan                       # average number of cycles each access was blocked
system.cpu.dcache.demand_mshr_hits::.cpu.data         1309                       # number of demand (read+write) MSHR hits
system.cpu.dcache.demand_mshr_hits::total         1309                       # number of demand (read+write) MSHR hits
system.cpu.dcache.overall_mshr_hits::.cpu.data         1309                       # number of overall MSHR hits
system.cpu.dcache.overall_mshr_hits::total         1309                       # number of overall MSHR hits
system.cpu.dcache.demand_mshr_misses::.cpu.data          344                       # number of demand (read+write) MSHR misses
system.cpu.dcache.demand_mshr_misses::total          344                       # number of demand (read+write) MSHR misses
system.cpu.dcache.overall_mshr_misses::.cpu.data          346                       # number of overall MSHR misses
system.cpu.dcache.overall_mshr_misses::total          346                       # number of overall MSHR misses
system.cpu.dcache.demand_mshr_miss_latency::.cpu.data     29471500                       # number of demand (read+write) MSHR miss cycles
system.cpu.dcache.demand_mshr_miss_latency::total     29471500                       # number of demand (read+write) MSHR miss cycles
system.cpu.dcache.overall_mshr_miss_latency::.cpu.data     29631000                       # number of overall MSHR miss cycles
system.cpu.dcache.overall_mshr_miss_latency::total     29631000                       # number of overall MSHR miss cycles
system.cpu.dcache.demand_mshr_miss_rate::.cpu.data     0.000113                       # mshr miss rate for demand accesses
system.cpu.dcache.demand_mshr_miss_rate::total     0.000113                       # mshr miss rate for demand accesses
system.cpu.dcache.overall_mshr_miss_rate::.cpu.data     0.000113                       # mshr miss rate for overall accesses
system.cpu.dcache.overall_mshr_miss_rate::total     0.000113                       # mshr miss rate for overall accesses
system.cpu.dcache.demand_avg_mshr_miss_latency::.cpu.data 85672.965116                       # average overall mshr miss latency
system.cpu.dcache.demand_avg_mshr_miss_latency::total 85672.965116                       # average overall mshr miss latency
system.cpu.dcache.overall_avg_mshr_miss_latency::.cpu.data 85638.728324                       # average overall mshr miss latency
system.cpu.dcache.overall_avg_mshr_miss_latency::total 85638.728324                       # average overall mshr miss latency
system.cpu.dcache.replacements                      0                       # number of replacements
system.cpu.dcache.ReadReq_hits::.cpu.data      1541831                       # number of ReadReq hits
system.cpu.dcache.ReadReq_hits::total         1541831                       # number of ReadReq hits
system.cpu.dcache.ReadReq_misses::.cpu.data          250                       # number of ReadReq misses
system.cpu.dcache.ReadReq_misses::total           250                       # number of ReadReq misses
system.cpu.dcache.ReadReq_miss_latency::.cpu.data     20681500                       # number of ReadReq miss cycles
system.cpu.dcache.ReadReq_miss_latency::total     20681500                       # number of ReadReq miss cycles
system.cpu.dcache.ReadReq_accesses::.cpu.data      1542081                       # number of ReadReq accesses(hits+misses)
system.cpu.dcache.ReadReq_accesses::total      1542081                       # number of ReadReq accesses(hits+misses)
system.cpu.dcache.ReadReq_miss_rate::.cpu.data     0.000162                       # miss rate for ReadReq accesses
system.cpu.dcache.ReadReq_miss_rate::total     0.000162                       # miss rate for ReadReq accesses
system.cpu.dcache.ReadReq_avg_miss_latency::.cpu.data        82726                       # average ReadReq miss latency
system.cpu.dcache.ReadReq_avg_miss_latency::total        82726                       # average ReadReq miss latency
system.cpu.dcache.ReadReq_mshr_hits::.cpu.data          146                       # number of ReadReq MSHR hits
system.cpu.dcache.ReadReq_mshr_hits::total          146                       # number of ReadReq MSHR hits
system.cpu.dcache.ReadReq_mshr_misses::.cpu.data          104                       # number of ReadReq MSHR misses
system.cpu.dcache.ReadReq_mshr_misses::total          104                       # number of ReadReq MSHR misses
system.cpu.dcache.ReadReq_mshr_miss_latency::.cpu.data     10114000                       # number of ReadReq MSHR miss cycles
system.cpu.dcache.ReadReq_mshr_miss_latency::total     10114000                       # number of ReadReq MSHR miss cycles
system.cpu.dcache.ReadReq_mshr_miss_rate::.cpu.data     0.000067                       # mshr miss rate for ReadReq accesses
system.cpu.dcache.ReadReq_mshr_miss_rate::total     0.000067                       # mshr miss rate for ReadReq accesses
system.cpu.dcache.ReadReq_avg_mshr_miss_latency::.cpu.data        97250                       # average ReadReq mshr miss latency
system.cpu.dcache.ReadReq_avg_mshr_miss_latency::total        97250                       # average ReadReq mshr miss latency
system.cpu.dcache.WriteReq_hits::.cpu.data      1508936                       # number of WriteReq hits
system.cpu.dcache.WriteReq_hits::total        1508936                       # number of WriteReq hits
system.cpu.dcache.WriteReq_misses::.cpu.data         1396                       # number of WriteReq misses
system.cpu.dcache.WriteReq_misses::total         1396                       # number of WriteReq misses
system.cpu.dcache.WriteReq_miss_latency::.cpu.data     90324000                       # number of WriteReq miss cycles
system.cpu.dcache.WriteReq_miss_latency::total     90324000                       # number of WriteReq miss cycles
system.cpu.dcache.WriteReq_accesses::.cpu.data      1510332                       # number of WriteReq accesses(hits+misses)
system.cpu.dcache.WriteReq_accesses::total      1510332                       # number of WriteReq accesses(hits+misses)
system.cpu.dcache.WriteReq_miss_rate::.cpu.data     0.000924                       # miss rate for WriteReq accesses
system.cpu.dcache.WriteReq_miss_rate::total     0.000924                       # miss rate for WriteReq accesses
system.cpu.dcache.WriteReq_avg_miss_latency::.cpu.data 64702.005731                       # average WriteReq miss latency
system.cpu.dcache.WriteReq_avg_miss_latency::total 64702.005731                       # average WriteReq miss latency
system.cpu.dcache.WriteReq_mshr_hits::.cpu.data         1163                       # number of WriteReq MSHR hits
system.cpu.dcache.WriteReq_mshr_hits::total         1163                       # number of WriteReq MSHR hits
system.cpu.dcache.WriteReq_mshr_misses::.cpu.data          233                       # number of WriteReq MSHR misses
system.cpu.dcache.WriteReq_mshr_misses::total          233                       # number of WriteReq MSHR misses
system.cpu.dcache.WriteReq_mshr_miss_latency::.cpu.data     19141000                       # number of WriteReq MSHR miss cycles
system.cpu.dcache.WriteReq_mshr_miss_latency::total     19141000                       # number of WriteReq MSHR miss cycles
system.cpu.dcache.WriteReq_mshr_miss_rate::.cpu.data     0.000154                       # mshr miss rate for WriteReq accesses
system.cpu.dcache.WriteReq_mshr_miss_rate::total     0.000154                       # mshr miss rate for WriteReq accesses
system.cpu.dcache.WriteReq_avg_mshr_miss_latency::.cpu.data 82150.214592                       # average WriteReq mshr miss latency
system.cpu.dcache.WriteReq_avg_mshr_miss_latency::total 82150.214592                       # average WriteReq mshr miss latency
system.cpu.dcache.SoftPFReq_hits::.cpu.data        11428                       # number of SoftPFReq hits
system.cpu.dcache.SoftPFReq_hits::total         11428                       # number of SoftPFReq hits
system.cpu.dcache.SoftPFReq_misses::.cpu.data            2                       # number of SoftPFReq misses
system.cpu.dcache.SoftPFReq_misses::total            2                       # number of SoftPFReq misses
system.cpu.dcache.SoftPFReq_accesses::.cpu.data        11430                       # number of SoftPFReq accesses(hits+misses)
system.cpu.dcache.SoftPFReq_accesses::total        11430                       # number of SoftPFReq accesses(hits+misses)
system.cpu.dcache.SoftPFReq_miss_rate::.cpu.data     0.000175                       # miss rate for SoftPFReq accesses
system.cpu.dcache.SoftPFReq_miss_rate::total     0.000175                       # miss rate for SoftPFReq accesses
system.cpu.dcache.SoftPFReq_mshr_misses::.cpu.data            2                       # number of SoftPFReq MSHR misses
system.cpu.dcache.SoftPFReq_mshr_misses::total            2                       # number of SoftPFReq MSHR misses
system.cpu.dcache.SoftPFReq_mshr_miss_latency::.cpu.data       159500                       # number of SoftPFReq MSHR miss cycles
system.cpu.dcache.SoftPFReq_mshr_miss_latency::total       159500                       # number of SoftPFReq MSHR miss cycles
system.cpu.dcache.SoftPFReq_mshr_miss_rate::.cpu.data     0.000175                       # mshr miss rate for SoftPFReq accesses
system.cpu.dcache.SoftPFReq_mshr_miss_rate::total     0.000175                       # mshr miss rate for SoftPFReq accesses
system.cpu.dcache.SoftPFReq_avg_mshr_miss_latency::.cpu.data        79750                       # average SoftPFReq mshr miss latency
system.cpu.dcache.SoftPFReq_avg_mshr_miss_latency::total        79750                       # average SoftPFReq mshr miss latency
system.cpu.dcache.WriteLineReq_misses::.cpu.data            7                       # number of WriteLineReq misses
system.cpu.dcache.WriteLineReq_misses::total            7                       # number of WriteLineReq misses
system.cpu.dcache.WriteLineReq_miss_latency::.cpu.data       223500                       # number of WriteLineReq miss cycles
system.cpu.dcache.WriteLineReq_miss_latency::total       223500                       # number of WriteLineReq miss cycles
system.cpu.dcache.WriteLineReq_accesses::.cpu.data            7                       # number of WriteLineReq accesses(hits+misses)
system.cpu.dcache.WriteLineReq_accesses::total            7                       # number of WriteLineReq accesses(hits+misses)
system.cpu.dcache.WriteLineReq_miss_rate::.cpu.data            1                       # miss rate for WriteLineReq accesses
system.cpu.dcache.WriteLineReq_miss_rate::total            1                       # miss rate for WriteLineReq accesses
system.cpu.dcache.WriteLineReq_avg_miss_latency::.cpu.data 31928.571429                       # average WriteLineReq miss latency
system.cpu.dcache.WriteLineReq_avg_miss_latency::total 31928.571429                       # average WriteLineReq miss latency
system.cpu.dcache.WriteLineReq_mshr_misses::.cpu.data            7                       # number of WriteLineReq MSHR misses
system.cpu.dcache.WriteLineReq_mshr_misses::total            7                       # number of WriteLineReq MSHR misses
system.cpu.dcache.WriteLineReq_mshr_miss_latency::.cpu.data       216500                       # number of WriteLineReq MSHR miss cycles
system.cpu.dcache.WriteLineReq_mshr_miss_latency::total       216500                       # number of WriteLineReq MSHR miss cycles
system.cpu.dcache.WriteLineReq_mshr_miss_rate::.cpu.data            1                       # mshr miss rate for WriteLineReq accesses
system.cpu.dcache.WriteLineReq_mshr_miss_rate::total            1                       # mshr miss rate for WriteLineReq accesses
system.cpu.dcache.WriteLineReq_avg_mshr_miss_latency::.cpu.data 30928.571429                       # average WriteLineReq mshr miss latency
system.cpu.dcache.WriteLineReq_avg_mshr_miss_latency::total 30928.571429                       # average WriteLineReq mshr miss latency
system.cpu.dcache.LoadLockedReq_hits::.cpu.data        11427                       # number of LoadLockedReq hits
system.cpu.dcache.LoadLockedReq_hits::total        11427                       # number of LoadLockedReq hits
system.cpu.dcache.LoadLockedReq_misses::.cpu.data            2                       # number of LoadLockedReq misses
system.cpu.dcache.LoadLockedReq_misses::total            2                       # number of LoadLockedReq misses
system.cpu.dcache.LoadLockedReq_miss_latency::.cpu.data       169000                       # number of LoadLockedReq miss cycles
system.cpu.dcache.LoadLockedReq_miss_latency::total       169000                       # number of LoadLockedReq miss cycles
system.cpu.dcache.LoadLockedReq_accesses::.cpu.data        11429                       # number of LoadLockedReq accesses(hits+misses)
system.cpu.dcache.LoadLockedReq_accesses::total        11429                       # number of LoadLockedReq accesses(hits+misses)
system.cpu.dcache.LoadLockedReq_miss_rate::.cpu.data     0.000175                       # miss rate for LoadLockedReq accesses
system.cpu.dcache.LoadLockedReq_miss_rate::total     0.000175                       # miss rate for LoadLockedReq accesses
system.cpu.dcache.LoadLockedReq_avg_miss_latency::.cpu.data        84500                       # average LoadLockedReq miss latency
system.cpu.dcache.LoadLockedReq_avg_miss_latency::total        84500                       # average LoadLockedReq miss latency
system.cpu.dcache.LoadLockedReq_mshr_hits::.cpu.data            1                       # number of LoadLockedReq MSHR hits
system.cpu.dcache.LoadLockedReq_mshr_hits::total            1                       # number of LoadLockedReq MSHR hits
system.cpu.dcache.LoadLockedReq_mshr_misses::.cpu.data            1                       # number of LoadLockedReq MSHR misses
system.cpu.dcache.LoadLockedReq_mshr_misses::total            1                       # number of LoadLockedReq MSHR misses
system.cpu.dcache.LoadLockedReq_mshr_miss_latency::.cpu.data        81500                       # number of LoadLockedReq MSHR miss cycles
system.cpu.dcache.LoadLockedReq_mshr_miss_latency::total        81500                       # number of LoadLockedReq MSHR miss cycles
system.cpu.dcache.LoadLockedReq_mshr_miss_rate::.cpu.data     0.000087                       # mshr miss rate for LoadLockedReq accesses
system.cpu.dcache.LoadLockedReq_mshr_miss_rate::total     0.000087                       # mshr miss rate for LoadLockedReq accesses
system.cpu.dcache.LoadLockedReq_avg_mshr_miss_latency::.cpu.data        81500                       # average LoadLockedReq mshr miss latency
system.cpu.dcache.LoadLockedReq_avg_mshr_miss_latency::total        81500                       # average LoadLockedReq mshr miss latency
system.cpu.dcache.StoreCondReq_hits::.cpu.data        11427                       # number of StoreCondReq hits
system.cpu.dcache.StoreCondReq_hits::total        11427                       # number of StoreCondReq hits
system.cpu.dcache.StoreCondReq_accesses::.cpu.data        11427                       # number of StoreCondReq accesses(hits+misses)
system.cpu.dcache.StoreCondReq_accesses::total        11427                       # number of StoreCondReq accesses(hits+misses)
system.cpu.dcache.power_state.pwrStateResidencyTicks::UNDEFINED   3048321000                       # Cumulative time (in ticks) in various power states
system.cpu.dcache.tags.tagsinuse           334.038346                       # Cycle average of tags in use
system.cpu.dcache.tags.total_refs             3085396                       # Total number of references to valid blocks.
system.cpu.dcache.tags.sampled_refs               347                       # Sample count of references to valid blocks.
system.cpu.dcache.tags.avg_refs           8891.631124                       # Average number of references to valid blocks.
system.cpu.dcache.tags.warmup_cycle            176500                       # Cycle when the warmup percentage was hit.
system.cpu.dcache.tags.occ_blocks::.cpu.data   334.038346                       # Average occupied blocks per requestor
system.cpu.dcache.tags.occ_percent::.cpu.data     0.326209                       # Average percentage of cache occupancy
system.cpu.dcache.tags.occ_percent::total     0.326209                       # Average percentage of cache occupancy
system.cpu.dcache.tags.occ_task_id_blocks::1024          347                       # Occupied blocks per task id
system.cpu.dcache.tags.age_task_id_blocks_1024::3          347                       # Occupied blocks per task id
system.cpu.dcache.tags.occ_task_id_percent::1024     0.338867                       # Percentage of cache occupancy per task id
system.cpu.dcache.tags.tag_accesses           6173759                       # Number of tag accesses
system.cpu.dcache.tags.data_accesses          6173759                       # Number of data accesses
system.cpu.dcache.tags.power_state.pwrStateResidencyTicks::UNDEFINED   3048321000                       # Cumulative time (in ticks) in various power states
system.cpu.power_state.pwrStateResidencyTicks::ON   3048321000                       # Cumulative time (in ticks) in various power states

---------- End Simulation Statistics   ----------
