
---------- Begin Simulation Statistics ----------
final_tick                                  377548000                       # Number of ticks from beginning of simulation (restored from checkpoints and never reset)
host_inst_rate                                 118783                       # Simulator instruction rate (inst/s)
host_mem_usage                                 861868                       # Number of bytes of host memory used
host_op_rate                                   125117                       # Simulator op (including micro ops) rate (op/s)
host_seconds                                     8.42                       # Real time elapsed on the host
host_tick_rate                               44845508                       # Simulator tick rate (ticks/s)
sim_freq                                 1000000000000                       # Frequency of simulated ticks
sim_insts                                     1000000                       # Number of instructions simulated
sim_ops                                       1053339                       # Number of ops (including micro ops) simulated
sim_seconds                                  0.000378                       # Number of seconds simulated
sim_ticks                                   377548000                       # Number of ticks simulated
system.cpu.branchPred.BTBCorrect                    0                       # Number of correct BTB predictions (this stat may not work properly.
system.cpu.branchPred.BTBHitPct             99.252524                       # BTB Hit Percentage
system.cpu.branchPred.BTBHits                  114725                       # Number of BTB hits
system.cpu.branchPred.BTBLookups               115589                       # Number of BTB lookups
system.cpu.branchPred.RASInCorrect                  1                       # Number of incorrect RAS predictions.
system.cpu.branchPred.condIncorrect              2372                       # Number of conditional branches incorrect
system.cpu.branchPred.condPredicted            165664                       # Number of conditional branches predicted
system.cpu.branchPred.indirectHits                 10                       # Number of indirect target hits.
system.cpu.branchPred.indirectLookups             182                       # Number of indirect predictor lookups.
system.cpu.branchPred.indirectMisses              172                       # Number of indirect misses.
system.cpu.branchPred.lookups                  215601                       # Number of BP lookups
system.cpu.branchPred.usedRAS                    1479                       # Number of times the RAS was used to get a target.
system.cpu.branchPredindirectMispredicted           54                       # Number of mispredicted indirect branches.
system.cpu.cc_regfile_reads                    313959                       # number of cc regfile reads
system.cpu.cc_regfile_writes                   314298                       # number of cc regfile writes
system.cpu.commit.amos                              0                       # Number of atomic instructions committed
system.cpu.commit.branchMispredicts              2144                       # The number of times a branch was mispredicted
system.cpu.commit.branches                     166034                       # Number of branches committed
system.cpu.commit.bw_lim_events                 90367                       # number cycles where commit BW limit reached
system.cpu.commit.commitNonSpecStalls              60                       # The number of times commit has been forced to stall to communicate backwards
system.cpu.commit.commitSquashedInsts          187839                       # The number of squashed insts skipped by commit
system.cpu.commit.committedInsts              1000753                       # Number of instructions committed
system.cpu.commit.committedOps                1054092                       # Number of ops (including micro ops) committed
system.cpu.commit.committed_per_cycle::samples       687792                       # Number of insts commited each cycle
system.cpu.commit.committed_per_cycle::mean     1.532574                       # Number of insts commited each cycle
system.cpu.commit.committed_per_cycle::stdev     2.737226                       # Number of insts commited each cycle
system.cpu.commit.committed_per_cycle::underflows            0      0.00%      0.00% # Number of insts commited each cycle
system.cpu.commit.committed_per_cycle::0       416435     60.55%     60.55% # Number of insts commited each cycle
system.cpu.commit.committed_per_cycle::1       115300     16.76%     77.31% # Number of insts commited each cycle
system.cpu.commit.committed_per_cycle::2        28938      4.21%     81.52% # Number of insts commited each cycle
system.cpu.commit.committed_per_cycle::3        17266      2.51%     84.03% # Number of insts commited each cycle
system.cpu.commit.committed_per_cycle::4         3852      0.56%     84.59% # Number of insts commited each cycle
system.cpu.commit.committed_per_cycle::5         6841      0.99%     85.58% # Number of insts commited each cycle
system.cpu.commit.committed_per_cycle::6         4982      0.72%     86.31% # Number of insts commited each cycle
system.cpu.commit.committed_per_cycle::7         3811      0.55%     86.86% # Number of insts commited each cycle
system.cpu.commit.committed_per_cycle::8        90367     13.14%    100.00% # Number of insts commited each cycle
system.cpu.commit.committed_per_cycle::overflows            0      0.00%    100.00% # Number of insts commited each cycle
system.cpu.commit.committed_per_cycle::min_value            0                       # Number of insts commited each cycle
system.cpu.commit.committed_per_cycle::max_value            8                       # Number of insts commited each cycle
system.cpu.commit.committed_per_cycle::total       687792                       # Number of insts commited each cycle
system.cpu.commit.fp_insts                          0                       # Number of committed floating point instructions.
system.cpu.commit.function_calls                  949                       # Number of function calls committed.
system.cpu.commit.int_insts                    932693                       # Number of committed integer instructions.
system.cpu.commit.loads                        381890                       # Number of loads committed
system.cpu.commit.membars                          36                       # Number of memory barriers committed
system.cpu.commit.op_class_0::No_OpClass            9      0.00%      0.00% # Class of committed instruction
system.cpu.commit.op_class_0::IntAlu           499972     47.43%     47.43% # Class of committed instruction
system.cpu.commit.op_class_0::IntMult              23      0.00%     47.43% # Class of committed instruction
system.cpu.commit.op_class_0::IntDiv                3      0.00%     47.43% # Class of committed instruction
system.cpu.commit.op_class_0::FloatAdd              0      0.00%     47.43% # Class of committed instruction
system.cpu.commit.op_class_0::FloatCmp              0      0.00%     47.43% # Class of committed instruction
system.cpu.commit.op_class_0::FloatCvt              0      0.00%     47.43% # Class of committed instruction
system.cpu.commit.op_class_0::FloatMult             0      0.00%     47.43% # Class of committed instruction
system.cpu.commit.op_class_0::FloatMultAcc            0      0.00%     47.43% # Class of committed instruction
system.cpu.commit.op_class_0::FloatDiv              0      0.00%     47.43% # Class of committed instruction
system.cpu.commit.op_class_0::FloatMisc             0      0.00%     47.43% # Class of committed instruction
system.cpu.commit.op_class_0::FloatSqrt             0      0.00%     47.43% # Class of committed instruction
system.cpu.commit.op_class_0::SimdAdd              29      0.00%     47.44% # Class of committed instruction
system.cpu.commit.op_class_0::SimdAddAcc            0      0.00%     47.44% # Class of committed instruction
system.cpu.commit.op_class_0::SimdAlu              34      0.00%     47.44% # Class of committed instruction
system.cpu.commit.op_class_0::SimdCmp              36      0.00%     47.44% # Class of committed instruction
system.cpu.commit.op_class_0::SimdCvt               0      0.00%     47.44% # Class of committed instruction
system.cpu.commit.op_class_0::SimdMisc             26      0.00%     47.45% # Class of committed instruction
system.cpu.commit.op_class_0::SimdMult              0      0.00%     47.45% # Class of committed instruction
system.cpu.commit.op_class_0::SimdMultAcc            0      0.00%     47.45% # Class of committed instruction
system.cpu.commit.op_class_0::SimdShift             0      0.00%     47.45% # Class of committed instruction
system.cpu.commit.op_class_0::SimdShiftAcc            0      0.00%     47.45% # Class of committed instruction
system.cpu.commit.op_class_0::SimdDiv               0      0.00%     47.45% # Class of committed instruction
system.cpu.commit.op_class_0::SimdSqrt              0      0.00%     47.45% # Class of committed instruction
system.cpu.commit.op_class_0::SimdFloatAdd            0      0.00%     47.45% # Class of committed instruction
system.cpu.commit.op_class_0::SimdFloatAlu            0      0.00%     47.45% # Class of committed instruction
system.cpu.commit.op_class_0::SimdFloatCmp            0      0.00%     47.45% # Class of committed instruction
system.cpu.commit.op_class_0::SimdFloatCvt            0      0.00%     47.45% # Class of committed instruction
system.cpu.commit.op_class_0::SimdFloatDiv            0      0.00%     47.45% # Class of committed instruction
system.cpu.commit.op_class_0::SimdFloatMisc            0      0.00%     47.45% # Class of committed instruction
system.cpu.commit.op_class_0::SimdFloatMult            0      0.00%     47.45% # Class of committed instruction
system.cpu.commit.op_class_0::SimdFloatMultAcc            0      0.00%     47.45% # Class of committed instruction
system.cpu.commit.op_class_0::SimdFloatSqrt            0      0.00%     47.45% # Class of committed instruction
system.cpu.commit.op_class_0::SimdReduceAdd            0      0.00%     47.45% # Class of committed instruction
system.cpu.commit.op_class_0::SimdReduceAlu            0      0.00%     47.45% # Class of committed instruction
system.cpu.commit.op_class_0::SimdReduceCmp            0      0.00%     47.45% # Class of committed instruction
system.cpu.commit.op_class_0::SimdFloatReduceAdd            0      0.00%     47.45% # Class of committed instruction
system.cpu.commit.op_class_0::SimdFloatReduceCmp            0      0.00%     47.45% # Class of committed instruction
system.cpu.commit.op_class_0::SimdAes               0      0.00%     47.45% # Class of committed instruction
system.cpu.commit.op_class_0::SimdAesMix            0      0.00%     47.45% # Class of committed instruction
system.cpu.commit.op_class_0::SimdSha1Hash            0      0.00%     47.45% # Class of committed instruction
system.cpu.commit.op_class_0::SimdSha1Hash2            0      0.00%     47.45% # Class of committed instruction
system.cpu.commit.op_class_0::SimdSha256Hash            0      0.00%     47.45% # Class of committed instruction
system.cpu.commit.op_class_0::SimdSha256Hash2            0      0.00%     47.45% # Class of committed instruction
system.cpu.commit.op_class_0::SimdShaSigma2            0      0.00%     47.45% # Class of committed instruction
system.cpu.commit.op_class_0::SimdShaSigma3            0      0.00%     47.45% # Class of committed instruction
system.cpu.commit.op_class_0::SimdPredAlu            0      0.00%     47.45% # Class of committed instruction
system.cpu.commit.op_class_0::MemRead          381890     36.23%     83.68% # Class of committed instruction
system.cpu.commit.op_class_0::MemWrite         172070     16.32%    100.00% # Class of committed instruction
system.cpu.commit.op_class_0::FloatMemRead            0      0.00%    100.00% # Class of committed instruction
system.cpu.commit.op_class_0::FloatMemWrite            0      0.00%    100.00% # Class of committed instruction
system.cpu.commit.op_class_0::IprAccess             0      0.00%    100.00% # Class of committed instruction
system.cpu.commit.op_class_0::InstPrefetch            0      0.00%    100.00% # Class of committed instruction
system.cpu.commit.op_class_0::total           1054092                       # Class of committed instruction
system.cpu.commit.refs                         553960                       # Number of memory references committed
system.cpu.commit.swp_count                         0                       # Number of s/w prefetches committed
system.cpu.commit.vec_insts                       224                       # Number of committed Vector instructions.
system.cpu.committedInsts                     1000000                       # Number of Instructions Simulated
system.cpu.committedOps                       1053339                       # Number of Ops (including micro ops) Simulated
system.cpu.cpi                               0.755097                       # CPI: Cycles Per Instruction
system.cpu.cpi_total                         0.755097                       # CPI: Total CPI of All Threads
system.cpu.decode.BlockedCycles                356463                       # Number of cycles decode is blocked
system.cpu.decode.BranchMispred                   230                       # Number of times decode detected a branch misprediction
system.cpu.decode.BranchResolved               106306                       # Number of times decode resolved a branch
system.cpu.decode.DecodedInsts                1269468                       # Number of instructions handled by decode
system.cpu.decode.IdleCycles                   121150                       # Number of cycles decode is idle
system.cpu.decode.RunCycles                    193438                       # Number of cycles decode is running
system.cpu.decode.SquashCycles                   2994                       # Number of cycles decode is squashing
system.cpu.decode.SquashedInsts                   787                       # Number of squashed instructions handled by decode
system.cpu.decode.UnblockCycles                 38631                       # Number of cycles decode is unblocking
system.cpu.dtb.accesses                             0                       # DTB accesses
system.cpu.dtb.align_faults                         0                       # Number of TLB faults due to alignment restrictions
system.cpu.dtb.domain_faults                        0                       # Number of TLB faults due to domain restrictions
system.cpu.dtb.flush_entries                        0                       # Number of entries that have been flushed from TLB
system.cpu.dtb.flush_tlb                            0                       # Number of times complete TLB was flushed
system.cpu.dtb.flush_tlb_asid                       0                       # Number of times TLB was flushed by ASID
system.cpu.dtb.flush_tlb_mva                        0                       # Number of times TLB was flushed by MVA
system.cpu.dtb.flush_tlb_mva_asid                   0                       # Number of times TLB was flushed by MVA & ASID
system.cpu.dtb.hits                                 0                       # DTB hits
system.cpu.dtb.inst_accesses                        0                       # ITB inst accesses
system.cpu.dtb.inst_hits                            0                       # ITB inst hits
system.cpu.dtb.inst_misses                          0                       # ITB inst misses
system.cpu.dtb.misses                               0                       # DTB misses
system.cpu.dtb.perms_faults                         0                       # Number of TLB faults due to permissions restrictions
system.cpu.dtb.prefetch_faults                      0                       # Number of TLB faults due to prefetch
system.cpu.dtb.read_accesses                        0                       # DTB read accesses
system.cpu.dtb.read_hits                            0                       # DTB read hits
system.cpu.dtb.read_misses                          0                       # DTB read misses
system.cpu.dtb.stage2_mmu.stage2_tlb.accesses            0                       # DTB accesses
system.cpu.dtb.stage2_mmu.stage2_tlb.align_faults            0                       # Number of TLB faults due to alignment restrictions
system.cpu.dtb.stage2_mmu.stage2_tlb.domain_faults            0                       # Number of TLB faults due to domain restrictions
system.cpu.dtb.stage2_mmu.stage2_tlb.flush_entries            0                       # Number of entries that have been flushed from TLB
system.cpu.dtb.stage2_mmu.stage2_tlb.flush_tlb            0                       # Number of times complete TLB was flushed
system.cpu.dtb.stage2_mmu.stage2_tlb.flush_tlb_asid            0                       # Number of times TLB was flushed by ASID
system.cpu.dtb.stage2_mmu.stage2_tlb.flush_tlb_mva            0                       # Number of times TLB was flushed by MVA
system.cpu.dtb.stage2_mmu.stage2_tlb.flush_tlb_mva_asid            0                       # Number of times TLB was flushed by MVA & ASID
system.cpu.dtb.stage2_mmu.stage2_tlb.hits            0                       # DTB hits
system.cpu.dtb.stage2_mmu.stage2_tlb.inst_accesses            0                       # ITB inst accesses
system.cpu.dtb.stage2_mmu.stage2_tlb.inst_hits            0                       # ITB inst hits
system.cpu.dtb.stage2_mmu.stage2_tlb.inst_misses            0                       # ITB inst misses
system.cpu.dtb.stage2_mmu.stage2_tlb.misses            0                       # DTB misses
system.cpu.dtb.stage2_mmu.stage2_tlb.perms_faults            0                       # Number of TLB faults due to permissions restrictions
system.cpu.dtb.stage2_mmu.stage2_tlb.prefetch_faults            0                       # Number of TLB faults due to prefetch
system.cpu.dtb.stage2_mmu.stage2_tlb.read_accesses            0                       # DTB read accesses
system.cpu.dtb.stage2_mmu.stage2_tlb.read_hits            0                       # DTB read hits
system.cpu.dtb.stage2_mmu.stage2_tlb.read_misses            0                       # DTB read misses
system.cpu.dtb.stage2_mmu.stage2_tlb.walker.walkRequestOrigin_Requested::Data            0                       # Table walker requests started/completed, data/inst
system.cpu.dtb.stage2_mmu.stage2_tlb.walker.walkRequestOrigin_Requested::Inst            0                       # Table walker requests started/completed, data/inst
system.cpu.dtb.stage2_mmu.stage2_tlb.walker.walkRequestOrigin_Requested::total            0                       # Table walker requests started/completed, data/inst
system.cpu.dtb.stage2_mmu.stage2_tlb.walker.walkRequestOrigin_Completed::Data            0                       # Table walker requests started/completed, data/inst
system.cpu.dtb.stage2_mmu.stage2_tlb.walker.walkRequestOrigin_Completed::Inst            0                       # Table walker requests started/completed, data/inst
system.cpu.dtb.stage2_mmu.stage2_tlb.walker.walkRequestOrigin_Completed::total            0                       # Table walker requests started/completed, data/inst
system.cpu.dtb.stage2_mmu.stage2_tlb.walker.walkRequestOrigin::total            0                       # Table walker requests started/completed, data/inst
system.cpu.dtb.stage2_mmu.stage2_tlb.walker.walks            0                       # Table walker walks requested
system.cpu.dtb.stage2_mmu.stage2_tlb.write_accesses            0                       # DTB write accesses
system.cpu.dtb.stage2_mmu.stage2_tlb.write_hits            0                       # DTB write hits
system.cpu.dtb.stage2_mmu.stage2_tlb.write_misses            0                       # DTB write misses
system.cpu.dtb.walker.walkRequestOrigin_Requested::Data            0                       # Table walker requests started/completed, data/inst
system.cpu.dtb.walker.walkRequestOrigin_Requested::Inst            0                       # Table walker requests started/completed, data/inst
system.cpu.dtb.walker.walkRequestOrigin_Requested::total            0                       # Table walker requests started/completed, data/inst
system.cpu.dtb.walker.walkRequestOrigin_Completed::Data            0                       # Table walker requests started/completed, data/inst
system.cpu.dtb.walker.walkRequestOrigin_Completed::Inst            0                       # Table walker requests started/completed, data/inst
system.cpu.dtb.walker.walkRequestOrigin_Completed::total            0                       # Table walker requests started/completed, data/inst
system.cpu.dtb.walker.walkRequestOrigin::total            0                       # Table walker requests started/completed, data/inst
system.cpu.dtb.walker.walks                         0                       # Table walker walks requested
system.cpu.dtb.write_accesses                       0                       # DTB write accesses
system.cpu.dtb.write_hits                           0                       # DTB write hits
system.cpu.dtb.write_misses                         0                       # DTB write misses
system.cpu.fetch.Branches                      215601                       # Number of branches that fetch encountered
system.cpu.fetch.CacheLines                    156502                       # Number of cache lines fetched
system.cpu.fetch.Cycles                        538174                       # Number of cycles fetch has run and was not squashing or blocked
system.cpu.fetch.IcacheSquashes                  1181                       # Number of outstanding Icache misses that were squashed
system.cpu.fetch.IcacheWaitRetryStallCycles           34                       # Number of stall cycles due to full MSHR
system.cpu.fetch.Insts                        1266014                       # Number of instructions fetch has processed
system.cpu.fetch.MiscStallCycles                    2                       # Number of cycles fetch has spent waiting on interrupts, or bad addresses, or out of MSHRs
system.cpu.fetch.SquashCycles                    6444                       # Number of cycles fetch has spent squashing
system.cpu.fetch.branchRate                  0.285528                       # Number of branch fetches per cycle
system.cpu.fetch.icacheStallCycles             171244                       # Number of cycles fetch is stalled on an Icache miss
system.cpu.fetch.predictedBranches             116214                       # Number of branches that fetch has predicted taken
system.cpu.fetch.rate                        1.676624                       # Number of inst fetches per cycle
system.cpu.fetch.rateDist::samples             712676                       # Number of instructions fetched each cycle (Total)
system.cpu.fetch.rateDist::mean              1.859132                       # Number of instructions fetched each cycle (Total)
system.cpu.fetch.rateDist::stdev             2.925439                       # Number of instructions fetched each cycle (Total)
system.cpu.fetch.rateDist::underflows               0      0.00%      0.00% # Number of instructions fetched each cycle (Total)
system.cpu.fetch.rateDist::0                   421979     59.21%     59.21% # Number of instructions fetched each cycle (Total)
system.cpu.fetch.rateDist::1                    93413     13.11%     72.32% # Number of instructions fetched each cycle (Total)
system.cpu.fetch.rateDist::2                    14320      2.01%     74.33% # Number of instructions fetched each cycle (Total)
system.cpu.fetch.rateDist::3                     3580      0.50%     74.83% # Number of instructions fetched each cycle (Total)
system.cpu.fetch.rateDist::4                    24858      3.49%     78.32% # Number of instructions fetched each cycle (Total)
system.cpu.fetch.rateDist::5                    39818      5.59%     83.90% # Number of instructions fetched each cycle (Total)
system.cpu.fetch.rateDist::6                     2691      0.38%     84.28% # Number of instructions fetched each cycle (Total)
system.cpu.fetch.rateDist::7                    18638      2.62%     86.90% # Number of instructions fetched each cycle (Total)
system.cpu.fetch.rateDist::8                    93379     13.10%    100.00% # Number of instructions fetched each cycle (Total)
system.cpu.fetch.rateDist::overflows                0      0.00%    100.00% # Number of instructions fetched each cycle (Total)
system.cpu.fetch.rateDist::min_value                0                       # Number of instructions fetched each cycle (Total)
system.cpu.fetch.rateDist::max_value                8                       # Number of instructions fetched each cycle (Total)
system.cpu.fetch.rateDist::total               712676                       # Number of instructions fetched each cycle (Total)
system.cpu.icache.prefetcher.num_hwpf_issued         1009                       # number of hwpf issued
system.cpu.icache.prefetcher.pfBufferHit           41                       # number of redundant prefetches already in prefetch queue
system.cpu.icache.prefetcher.pfIdentified         1089                       # number of prefetch candidates identified
system.cpu.icache.prefetcher.pfInCache              0                       # number of redundant prefetches already in cache/mshr dropped
system.cpu.icache.prefetcher.pfRemovedFull            0                       # number of prefetches dropped due to prefetch queue size
system.cpu.icache.prefetcher.pfSpanPage           350                       # number of prefetches that crossed the page
system.cpu.idleCycles                           42421                       # Total number of cycles that the CPU has spent unscheduled due to idling
system.cpu.iew.branchMispredicts                 2299                       # Number of branch mispredicts detected at execute
system.cpu.iew.exec_branches                   196846                       # Number of branches executed
system.cpu.iew.exec_nop                           973                       # number of nop insts executed
system.cpu.iew.exec_rate                     1.746838                       # Inst execution rate
system.cpu.iew.exec_refs                       723722                       # number of memory reference insts executed
system.cpu.iew.exec_stores                     202917                       # Number of stores executed
system.cpu.iew.exec_swp                             0                       # number of swp insts executed
system.cpu.iew.iewBlockCycles                   39901                       # Number of cycles IEW is blocking
system.cpu.iew.iewDispLoadInsts                427403                       # Number of dispatched load instructions
system.cpu.iew.iewDispNonSpecInsts                 79                       # Number of dispatched non-speculative instructions
system.cpu.iew.iewDispSquashedInsts               958                       # Number of squashed instructions skipped by dispatch
system.cpu.iew.iewDispStoreInsts               209324                       # Number of dispatched store instructions
system.cpu.iew.iewDispatchedInsts             1245723                       # Number of instructions dispatched to IQ
system.cpu.iew.iewExecLoadInsts                520805                       # Number of load instructions executed
system.cpu.iew.iewExecSquashedInsts              3290                       # Number of squashed instructions skipped in execute
system.cpu.iew.iewExecutedInsts               1319032                       # Number of executed instructions
system.cpu.iew.iewIQFullEvents                      9                       # Number of times the IQ has become full, causing a stall
system.cpu.iew.iewIdleCycles                        0                       # Number of cycles IEW is idle
system.cpu.iew.iewLSQFullEvents                 21776                       # Number of times the LSQ has become full, causing a stall
system.cpu.iew.iewSquashCycles                   2994                       # Number of cycles IEW is squashing
system.cpu.iew.iewUnblockCycles                 21273                       # Number of cycles IEW is unblocking
system.cpu.iew.lsq.thread0.blockedLoads             0                       # Number of blocked loads due to partial load-store forwarding
system.cpu.iew.lsq.thread0.cacheBlocked          2181                       # Number of times an access to memory failed due to the cache being blocked
system.cpu.iew.lsq.thread0.forwLoads           119704                       # Number of loads that had data forwarded from stores
system.cpu.iew.lsq.thread0.ignoredResponses           94                       # Number of memory responses ignored because the instruction is squashed
system.cpu.iew.lsq.thread0.invAddrLoads             0                       # Number of loads ignored due to an invalid address
system.cpu.iew.lsq.thread0.invAddrSwpfs             0                       # Number of software prefetches ignored due to an invalid address
system.cpu.iew.lsq.thread0.memOrderViolation           62                       # Number of memory ordering violations
system.cpu.iew.lsq.thread0.rescheduledLoads        57124                       # Number of loads that were rescheduled
system.cpu.iew.lsq.thread0.squashedLoads        45506                       # Number of loads squashed
system.cpu.iew.lsq.thread0.squashedStores        37250                       # Number of stores squashed
system.cpu.iew.memOrderViolationEvents             62                       # Number of memory order violations
system.cpu.iew.predictedNotTakenIncorrect         1706                       # Number of branches that were predicted not taken incorrectly
system.cpu.iew.predictedTakenIncorrect            593                       # Number of branches that were predicted taken incorrectly
system.cpu.iew.wb_consumers                   1295361                       # num instructions consuming a value
system.cpu.iew.wb_count                       1190647                       # cumulative count of insts written-back
system.cpu.iew.wb_fanout                     0.596138                       # average fanout of values written-back
system.cpu.iew.wb_producers                    772214                       # num instructions producing a value
system.cpu.iew.wb_rate                       1.576813                       # insts written-back per cycle
system.cpu.iew.wb_sent                        1216582                       # cumulative count of insts sent to commit
system.cpu.int_regfile_reads                  1586850                       # number of integer regfile reads
system.cpu.int_regfile_writes                  863782                       # number of integer regfile writes
system.cpu.ipc                               1.324333                       # IPC: Instructions Per Cycle
system.cpu.ipc_total                         1.324333                       # IPC: Total IPC of All Threads
system.cpu.iq.FU_type_0::No_OpClass                10      0.00%      0.00% # Type of FU issued
system.cpu.iq.FU_type_0::IntAlu                596310     45.10%     45.10% # Type of FU issued
system.cpu.iq.FU_type_0::IntMult                   26      0.00%     45.10% # Type of FU issued
system.cpu.iq.FU_type_0::IntDiv                     5      0.00%     45.10% # Type of FU issued
system.cpu.iq.FU_type_0::FloatAdd                   0      0.00%     45.10% # Type of FU issued
system.cpu.iq.FU_type_0::FloatCmp                   0      0.00%     45.10% # Type of FU issued
system.cpu.iq.FU_type_0::FloatCvt                   0      0.00%     45.10% # Type of FU issued
system.cpu.iq.FU_type_0::FloatMult                  0      0.00%     45.10% # Type of FU issued
system.cpu.iq.FU_type_0::FloatMultAcc               0      0.00%     45.10% # Type of FU issued
system.cpu.iq.FU_type_0::FloatDiv                   0      0.00%     45.10% # Type of FU issued
system.cpu.iq.FU_type_0::FloatMisc                  0      0.00%     45.10% # Type of FU issued
system.cpu.iq.FU_type_0::FloatSqrt                  0      0.00%     45.10% # Type of FU issued
system.cpu.iq.FU_type_0::SimdAdd                   35      0.00%     45.10% # Type of FU issued
system.cpu.iq.FU_type_0::SimdAddAcc                 0      0.00%     45.10% # Type of FU issued
system.cpu.iq.FU_type_0::SimdAlu                   38      0.00%     45.10% # Type of FU issued
system.cpu.iq.FU_type_0::SimdCmp                   40      0.00%     45.11% # Type of FU issued
system.cpu.iq.FU_type_0::SimdCvt                    0      0.00%     45.11% # Type of FU issued
system.cpu.iq.FU_type_0::SimdMisc                  28      0.00%     45.11% # Type of FU issued
system.cpu.iq.FU_type_0::SimdMult                   0      0.00%     45.11% # Type of FU issued
system.cpu.iq.FU_type_0::SimdMultAcc                0      0.00%     45.11% # Type of FU issued
system.cpu.iq.FU_type_0::SimdShift                  0      0.00%     45.11% # Type of FU issued
system.cpu.iq.FU_type_0::SimdShiftAcc               0      0.00%     45.11% # Type of FU issued
system.cpu.iq.FU_type_0::SimdDiv                    0      0.00%     45.11% # Type of FU issued
system.cpu.iq.FU_type_0::SimdSqrt                   0      0.00%     45.11% # Type of FU issued
system.cpu.iq.FU_type_0::SimdFloatAdd               0      0.00%     45.11% # Type of FU issued
system.cpu.iq.FU_type_0::SimdFloatAlu               0      0.00%     45.11% # Type of FU issued
system.cpu.iq.FU_type_0::SimdFloatCmp               0      0.00%     45.11% # Type of FU issued
system.cpu.iq.FU_type_0::SimdFloatCvt               0      0.00%     45.11% # Type of FU issued
system.cpu.iq.FU_type_0::SimdFloatDiv               0      0.00%     45.11% # Type of FU issued
system.cpu.iq.FU_type_0::SimdFloatMisc              0      0.00%     45.11% # Type of FU issued
system.cpu.iq.FU_type_0::SimdFloatMult              0      0.00%     45.11% # Type of FU issued
system.cpu.iq.FU_type_0::SimdFloatMultAcc            0      0.00%     45.11% # Type of FU issued
system.cpu.iq.FU_type_0::SimdFloatSqrt              0      0.00%     45.11% # Type of FU issued
system.cpu.iq.FU_type_0::SimdReduceAdd              0      0.00%     45.11% # Type of FU issued
system.cpu.iq.FU_type_0::SimdReduceAlu              0      0.00%     45.11% # Type of FU issued
system.cpu.iq.FU_type_0::SimdReduceCmp              0      0.00%     45.11% # Type of FU issued
system.cpu.iq.FU_type_0::SimdFloatReduceAdd            0      0.00%     45.11% # Type of FU issued
system.cpu.iq.FU_type_0::SimdFloatReduceCmp            0      0.00%     45.11% # Type of FU issued
system.cpu.iq.FU_type_0::SimdAes                    0      0.00%     45.11% # Type of FU issued
system.cpu.iq.FU_type_0::SimdAesMix                 0      0.00%     45.11% # Type of FU issued
system.cpu.iq.FU_type_0::SimdSha1Hash               0      0.00%     45.11% # Type of FU issued
system.cpu.iq.FU_type_0::SimdSha1Hash2              0      0.00%     45.11% # Type of FU issued
system.cpu.iq.FU_type_0::SimdSha256Hash             0      0.00%     45.11% # Type of FU issued
system.cpu.iq.FU_type_0::SimdSha256Hash2            0      0.00%     45.11% # Type of FU issued
system.cpu.iq.FU_type_0::SimdShaSigma2              0      0.00%     45.11% # Type of FU issued
system.cpu.iq.FU_type_0::SimdShaSigma3              0      0.00%     45.11% # Type of FU issued
system.cpu.iq.FU_type_0::SimdPredAlu                0      0.00%     45.11% # Type of FU issued
system.cpu.iq.FU_type_0::MemRead               522419     39.51%     84.62% # Type of FU issued
system.cpu.iq.FU_type_0::MemWrite              203414     15.38%    100.00% # Type of FU issued
system.cpu.iq.FU_type_0::FloatMemRead               0      0.00%    100.00% # Type of FU issued
system.cpu.iq.FU_type_0::FloatMemWrite              0      0.00%    100.00% # Type of FU issued
system.cpu.iq.FU_type_0::IprAccess                  0      0.00%    100.00% # Type of FU issued
system.cpu.iq.FU_type_0::InstPrefetch               0      0.00%    100.00% # Type of FU issued
system.cpu.iq.FU_type_0::total                1322325                       # Type of FU issued
system.cpu.iq.fp_alu_accesses                       0                       # Number of floating point alu accesses
system.cpu.iq.fp_inst_queue_reads                   0                       # Number of floating instruction queue reads
system.cpu.iq.fp_inst_queue_wakeup_accesses            0                       # Number of floating instruction queue wakeup accesses
system.cpu.iq.fp_inst_queue_writes                  0                       # Number of floating instruction queue writes
system.cpu.iq.fu_busy_cnt                       26286                       # FU busy when requested
system.cpu.iq.fu_busy_rate                   0.019879                       # FU busy rate (busy events/executed inst)
system.cpu.iq.fu_full::No_OpClass                   0      0.00%      0.00% # attempts to use FU when none available
system.cpu.iq.fu_full::IntAlu                    1935      7.36%      7.36% # attempts to use FU when none available
system.cpu.iq.fu_full::IntMult                      0      0.00%      7.36% # attempts to use FU when none available
system.cpu.iq.fu_full::IntDiv                       0      0.00%      7.36% # attempts to use FU when none available
system.cpu.iq.fu_full::FloatAdd                     0      0.00%      7.36% # attempts to use FU when none available
system.cpu.iq.fu_full::FloatCmp                     0      0.00%      7.36% # attempts to use FU when none available
system.cpu.iq.fu_full::FloatCvt                     0      0.00%      7.36% # attempts to use FU when none available
system.cpu.iq.fu_full::FloatMult                    0      0.00%      7.36% # attempts to use FU when none available
system.cpu.iq.fu_full::FloatMultAcc                 0      0.00%      7.36% # attempts to use FU when none available
system.cpu.iq.fu_full::FloatDiv                     0      0.00%      7.36% # attempts to use FU when none available
system.cpu.iq.fu_full::FloatMisc                    0      0.00%      7.36% # attempts to use FU when none available
system.cpu.iq.fu_full::FloatSqrt                    0      0.00%      7.36% # attempts to use FU when none available
system.cpu.iq.fu_full::SimdAdd                      0      0.00%      7.36% # attempts to use FU when none available
system.cpu.iq.fu_full::SimdAddAcc                   0      0.00%      7.36% # attempts to use FU when none available
system.cpu.iq.fu_full::SimdAlu                      2      0.01%      7.37% # attempts to use FU when none available
system.cpu.iq.fu_full::SimdCmp                      3      0.01%      7.38% # attempts to use FU when none available
system.cpu.iq.fu_full::SimdCvt                      0      0.00%      7.38% # attempts to use FU when none available
system.cpu.iq.fu_full::SimdMisc                     0      0.00%      7.38% # attempts to use FU when none available
system.cpu.iq.fu_full::SimdMult                     0      0.00%      7.38% # attempts to use FU when none available
system.cpu.iq.fu_full::SimdMultAcc                  0      0.00%      7.38% # attempts to use FU when none available
system.cpu.iq.fu_full::SimdShift                    0      0.00%      7.38% # attempts to use FU when none available
system.cpu.iq.fu_full::SimdShiftAcc                 0      0.00%      7.38% # attempts to use FU when none available
system.cpu.iq.fu_full::SimdDiv                      0      0.00%      7.38% # attempts to use FU when none available
system.cpu.iq.fu_full::SimdSqrt                     0      0.00%      7.38% # attempts to use FU when none available
system.cpu.iq.fu_full::SimdFloatAdd                 0      0.00%      7.38% # attempts to use FU when none available
system.cpu.iq.fu_full::SimdFloatAlu                 0      0.00%      7.38% # attempts to use FU when none available
system.cpu.iq.fu_full::SimdFloatCmp                 0      0.00%      7.38% # attempts to use FU when none available
system.cpu.iq.fu_full::SimdFloatCvt                 0      0.00%      7.38% # attempts to use FU when none available
system.cpu.iq.fu_full::SimdFloatDiv                 0      0.00%      7.38% # attempts to use FU when none available
system.cpu.iq.fu_full::SimdFloatMisc                0      0.00%      7.38% # attempts to use FU when none available
system.cpu.iq.fu_full::SimdFloatMult                0      0.00%      7.38% # attempts to use FU when none available
system.cpu.iq.fu_full::SimdFloatMultAcc             0      0.00%      7.38% # attempts to use FU when none available
system.cpu.iq.fu_full::SimdFloatSqrt                0      0.00%      7.38% # attempts to use FU when none available
system.cpu.iq.fu_full::SimdReduceAdd                0      0.00%      7.38% # attempts to use FU when none available
system.cpu.iq.fu_full::SimdReduceAlu                0      0.00%      7.38% # attempts to use FU when none available
system.cpu.iq.fu_full::SimdReduceCmp                0      0.00%      7.38% # attempts to use FU when none available
system.cpu.iq.fu_full::SimdFloatReduceAdd            0      0.00%      7.38% # attempts to use FU when none available
system.cpu.iq.fu_full::SimdFloatReduceCmp            0      0.00%      7.38% # attempts to use FU when none available
system.cpu.iq.fu_full::SimdAes                      0      0.00%      7.38% # attempts to use FU when none available
system.cpu.iq.fu_full::SimdAesMix                   0      0.00%      7.38% # attempts to use FU when none available
system.cpu.iq.fu_full::SimdSha1Hash                 0      0.00%      7.38% # attempts to use FU when none available
system.cpu.iq.fu_full::SimdSha1Hash2                0      0.00%      7.38% # attempts to use FU when none available
system.cpu.iq.fu_full::SimdSha256Hash               0      0.00%      7.38% # attempts to use FU when none available
system.cpu.iq.fu_full::SimdSha256Hash2              0      0.00%      7.38% # attempts to use FU when none available
system.cpu.iq.fu_full::SimdShaSigma2                0      0.00%      7.38% # attempts to use FU when none available
system.cpu.iq.fu_full::SimdShaSigma3                0      0.00%      7.38% # attempts to use FU when none available
system.cpu.iq.fu_full::SimdPredAlu                  0      0.00%      7.38% # attempts to use FU when none available
system.cpu.iq.fu_full::MemRead                  22805     86.76%     94.14% # attempts to use FU when none available
system.cpu.iq.fu_full::MemWrite                  1541      5.86%    100.00% # attempts to use FU when none available
system.cpu.iq.fu_full::FloatMemRead                 0      0.00%    100.00% # attempts to use FU when none available
system.cpu.iq.fu_full::FloatMemWrite                0      0.00%    100.00% # attempts to use FU when none available
system.cpu.iq.fu_full::IprAccess                    0      0.00%    100.00% # attempts to use FU when none available
system.cpu.iq.fu_full::InstPrefetch                 0      0.00%    100.00% # attempts to use FU when none available
system.cpu.iq.int_alu_accesses                1348309                       # Number of integer alu accesses
system.cpu.iq.int_inst_queue_reads            3383222                       # Number of integer instruction queue reads
system.cpu.iq.int_inst_queue_wakeup_accesses      1190393                       # Number of integer instruction queue wakeup accesses
system.cpu.iq.int_inst_queue_writes           1435686                       # Number of integer instruction queue writes
system.cpu.iq.iqInstsAdded                    1244671                       # Number of instructions added to the IQ (excludes non-spec)
system.cpu.iq.iqInstsIssued                   1322325                       # Number of instructions issued
system.cpu.iq.iqNonSpecInstsAdded                  79                       # Number of non-speculative instructions added to the IQ
system.cpu.iq.iqSquashedInstsExamined          191392                       # Number of squashed instructions iterated over during squash; mainly for profiling
system.cpu.iq.iqSquashedInstsIssued               211                       # Number of squashed instructions issued
system.cpu.iq.iqSquashedNonSpecRemoved             19                       # Number of squashed non-spec instructions that were removed
system.cpu.iq.iqSquashedOperandsExamined       120729                       # Number of squashed operands that are examined and possibly removed from graph
system.cpu.iq.issued_per_cycle::samples        712676                       # Number of insts issued each cycle
system.cpu.iq.issued_per_cycle::mean         1.855436                       # Number of insts issued each cycle
system.cpu.iq.issued_per_cycle::stdev        2.073574                       # Number of insts issued each cycle
system.cpu.iq.issued_per_cycle::underflows            0      0.00%      0.00% # Number of insts issued each cycle
system.cpu.iq.issued_per_cycle::0              293187     41.14%     41.14% # Number of insts issued each cycle
system.cpu.iq.issued_per_cycle::1               79047     11.09%     52.23% # Number of insts issued each cycle
system.cpu.iq.issued_per_cycle::2              107641     15.10%     67.33% # Number of insts issued each cycle
system.cpu.iq.issued_per_cycle::3               74399     10.44%     77.77% # Number of insts issued each cycle
system.cpu.iq.issued_per_cycle::4               72737     10.21%     87.98% # Number of insts issued each cycle
system.cpu.iq.issued_per_cycle::5               36656      5.14%     93.12% # Number of insts issued each cycle
system.cpu.iq.issued_per_cycle::6               22165      3.11%     96.23% # Number of insts issued each cycle
system.cpu.iq.issued_per_cycle::7               17171      2.41%     98.64% # Number of insts issued each cycle
system.cpu.iq.issued_per_cycle::8                9673      1.36%    100.00% # Number of insts issued each cycle
system.cpu.iq.issued_per_cycle::overflows            0      0.00%    100.00% # Number of insts issued each cycle
system.cpu.iq.issued_per_cycle::min_value            0                       # Number of insts issued each cycle
system.cpu.iq.issued_per_cycle::max_value            8                       # Number of insts issued each cycle
system.cpu.iq.issued_per_cycle::total          712676                       # Number of insts issued each cycle
system.cpu.iq.rate                           1.751199                       # Inst issue rate
system.cpu.iq.vec_alu_accesses                    292                       # Number of vector alu accesses
system.cpu.iq.vec_inst_queue_reads                598                       # Number of vector instruction queue reads
system.cpu.iq.vec_inst_queue_wakeup_accesses          254                       # Number of vector instruction queue wakeup accesses
system.cpu.iq.vec_inst_queue_writes               510                       # Number of vector instruction queue writes
system.cpu.itb.accesses                             0                       # DTB accesses
system.cpu.itb.align_faults                         0                       # Number of TLB faults due to alignment restrictions
system.cpu.itb.domain_faults                        0                       # Number of TLB faults due to domain restrictions
system.cpu.itb.flush_entries                        0                       # Number of entries that have been flushed from TLB
system.cpu.itb.flush_tlb                            0                       # Number of times complete TLB was flushed
system.cpu.itb.flush_tlb_asid                       0                       # Number of times TLB was flushed by ASID
system.cpu.itb.flush_tlb_mva                        0                       # Number of times TLB was flushed by MVA
system.cpu.itb.flush_tlb_mva_asid                   0                       # Number of times TLB was flushed by MVA & ASID
system.cpu.itb.hits                                 0                       # DTB hits
system.cpu.itb.inst_accesses                        0                       # ITB inst accesses
system.cpu.itb.inst_hits                            0                       # ITB inst hits
system.cpu.itb.inst_misses                          0                       # ITB inst misses
system.cpu.itb.misses                               0                       # DTB misses
system.cpu.itb.perms_faults                         0                       # Number of TLB faults due to permissions restrictions
system.cpu.itb.prefetch_faults                      0                       # Number of TLB faults due to prefetch
system.cpu.itb.read_accesses                        0                       # DTB read accesses
system.cpu.itb.read_hits                            0                       # DTB read hits
system.cpu.itb.read_misses                          0                       # DTB read misses
system.cpu.itb.stage2_mmu.stage2_tlb.accesses            0                       # DTB accesses
system.cpu.itb.stage2_mmu.stage2_tlb.align_faults            0                       # Number of TLB faults due to alignment restrictions
system.cpu.itb.stage2_mmu.stage2_tlb.domain_faults            0                       # Number of TLB faults due to domain restrictions
system.cpu.itb.stage2_mmu.stage2_tlb.flush_entries            0                       # Number of entries that have been flushed from TLB
system.cpu.itb.stage2_mmu.stage2_tlb.flush_tlb            0                       # Number of times complete TLB was flushed
system.cpu.itb.stage2_mmu.stage2_tlb.flush_tlb_asid            0                       # Number of times TLB was flushed by ASID
system.cpu.itb.stage2_mmu.stage2_tlb.flush_tlb_mva            0                       # Number of times TLB was flushed by MVA
system.cpu.itb.stage2_mmu.stage2_tlb.flush_tlb_mva_asid            0                       # Number of times TLB was flushed by MVA & ASID
system.cpu.itb.stage2_mmu.stage2_tlb.hits            0                       # DTB hits
system.cpu.itb.stage2_mmu.stage2_tlb.inst_accesses            0                       # ITB inst accesses
system.cpu.itb.stage2_mmu.stage2_tlb.inst_hits            0                       # ITB inst hits
system.cpu.itb.stage2_mmu.stage2_tlb.inst_misses            0                       # ITB inst misses
system.cpu.itb.stage2_mmu.stage2_tlb.misses            0                       # DTB misses
system.cpu.itb.stage2_mmu.stage2_tlb.perms_faults            0                       # Number of TLB faults due to permissions restrictions
system.cpu.itb.stage2_mmu.stage2_tlb.prefetch_faults            0                       # Number of TLB faults due to prefetch
system.cpu.itb.stage2_mmu.stage2_tlb.read_accesses            0                       # DTB read accesses
system.cpu.itb.stage2_mmu.stage2_tlb.read_hits            0                       # DTB read hits
system.cpu.itb.stage2_mmu.stage2_tlb.read_misses            0                       # DTB read misses
system.cpu.itb.stage2_mmu.stage2_tlb.walker.walkRequestOrigin_Requested::Data            0                       # Table walker requests started/completed, data/inst
system.cpu.itb.stage2_mmu.stage2_tlb.walker.walkRequestOrigin_Requested::Inst            0                       # Table walker requests started/completed, data/inst
system.cpu.itb.stage2_mmu.stage2_tlb.walker.walkRequestOrigin_Requested::total            0                       # Table walker requests started/completed, data/inst
system.cpu.itb.stage2_mmu.stage2_tlb.walker.walkRequestOrigin_Completed::Data            0                       # Table walker requests started/completed, data/inst
system.cpu.itb.stage2_mmu.stage2_tlb.walker.walkRequestOrigin_Completed::Inst            0                       # Table walker requests started/completed, data/inst
system.cpu.itb.stage2_mmu.stage2_tlb.walker.walkRequestOrigin_Completed::total            0                       # Table walker requests started/completed, data/inst
system.cpu.itb.stage2_mmu.stage2_tlb.walker.walkRequestOrigin::total            0                       # Table walker requests started/completed, data/inst
system.cpu.itb.stage2_mmu.stage2_tlb.walker.walks            0                       # Table walker walks requested
system.cpu.itb.stage2_mmu.stage2_tlb.write_accesses            0                       # DTB write accesses
system.cpu.itb.stage2_mmu.stage2_tlb.write_hits            0                       # DTB write hits
system.cpu.itb.stage2_mmu.stage2_tlb.write_misses            0                       # DTB write misses
system.cpu.itb.walker.walkRequestOrigin_Requested::Data            0                       # Table walker requests started/completed, data/inst
system.cpu.itb.walker.walkRequestOrigin_Requested::Inst            0                       # Table walker requests started/completed, data/inst
system.cpu.itb.walker.walkRequestOrigin_Requested::total            0                       # Table walker requests started/completed, data/inst
system.cpu.itb.walker.walkRequestOrigin_Completed::Data            0                       # Table walker requests started/completed, data/inst
system.cpu.itb.walker.walkRequestOrigin_Completed::Inst            0                       # Table walker requests started/completed, data/inst
system.cpu.itb.walker.walkRequestOrigin_Completed::total            0                       # Table walker requests started/completed, data/inst
system.cpu.itb.walker.walkRequestOrigin::total            0                       # Table walker requests started/completed, data/inst
system.cpu.itb.walker.walks                         0                       # Table walker walks requested
system.cpu.itb.write_accesses                       0                       # DTB write accesses
system.cpu.itb.write_hits                           0                       # DTB write hits
system.cpu.itb.write_misses                         0                       # DTB write misses
system.cpu.memDep0.conflictingLoads            103797                       # Number of conflicting loads.
system.cpu.memDep0.conflictingStores            64100                       # Number of conflicting stores.
system.cpu.memDep0.insertedLoads               427403                       # Number of loads inserted to the mem dependence unit.
system.cpu.memDep0.insertedStores              209324                       # Number of stores inserted to the mem dependence unit.
system.cpu.misc_regfile_reads                 1050548                       # number of misc regfile reads
system.cpu.misc_regfile_writes                    145                       # number of misc regfile writes
system.cpu.numCycles                           755097                       # number of cpu cycles simulated
system.cpu.numWorkItemsCompleted                    0                       # number of work items this cpu completed
system.cpu.numWorkItemsStarted                      0                       # number of work items this cpu started
system.cpu.rename.BlockCycles                   81731                       # Number of cycles rename is blocking
system.cpu.rename.CommittedMaps                994060                       # Number of HB maps that are committed
system.cpu.rename.IQFullEvents                  11717                       # Number of times rename has blocked due to IQ full
system.cpu.rename.IdleCycles                   139839                       # Number of cycles rename is idle
system.cpu.rename.LQFullEvents                  69468                       # Number of times rename has blocked due to LQ full
system.cpu.rename.ROBFullEvents                  1498                       # Number of times rename has blocked due to ROB full
system.cpu.rename.RenameLookups               1840174                       # Number of register rename lookups that rename has made
system.cpu.rename.RenamedInsts                1259656                       # Number of instructions processed by rename
system.cpu.rename.RenamedOperands             1219066                       # Number of destination operands rename has renamed
system.cpu.rename.RunCycles                    212039                       # Number of cycles rename is running
system.cpu.rename.SQFullEvents                 174926                       # Number of times rename has blocked due to SQ full
system.cpu.rename.SquashCycles                   2994                       # Number of cycles rename is squashing
system.cpu.rename.UnblockCycles                266582                       # Number of cycles rename is unblocking
system.cpu.rename.UndoneMaps                   224976                       # Number of HB maps that are undone due to squashing
system.cpu.rename.int_rename_lookups          1512323                       # Number of integer rename lookups
system.cpu.rename.serializeStallCycles           9491                       # count of cycles rename stalled for serializing inst
system.cpu.rename.serializingInsts                204                       # count of serializing insts renamed
system.cpu.rename.skidInsts                    223869                       # count of insts added to the skid buffer
system.cpu.rename.tempSerializingInsts             80                       # count of temporary serializing insts renamed
system.cpu.rename.vec_rename_lookups              502                       # Number of vector rename lookups
system.cpu.rob.rob_reads                      1828904                       # The number of ROB reads
system.cpu.rob.rob_writes                     2508782                       # The number of ROB writes
system.cpu.timesIdled                             432                       # Number of times that the entire CPU went into an idle state and unscheduled itself
system.cpu.vec_regfile_reads                      336                       # number of vector regfile reads
system.cpu.vec_regfile_writes                     167                       # number of vector regfile writes
system.cpu.workload.numSyscalls                    23                       # Number of system calls
system.membus.snoop_filter.hit_multi_requests            0                       # Number of requests hitting in the snoop filter with multiple (>1) holders of the requested data.
system.membus.snoop_filter.hit_multi_snoops            0                       # Number of snoops hitting in the snoop filter with multiple (>1) holders of the requested data.
system.membus.snoop_filter.hit_single_requests         1170                       # Number of requests hitting in the snoop filter with a single holder of the requested data.
system.membus.snoop_filter.hit_single_snoops            0                       # Number of snoops hitting in the snoop filter with a single holder of the requested data.
system.membus.snoop_filter.tot_requests          6757                       # Total number of requests made to the snoop filter.
system.membus.snoop_filter.tot_snoops               0                       # Total number of snoops made to the snoop filter.
system.tol2bus.snoop_filter.hit_multi_requests            1                       # Number of requests hitting in the snoop filter with multiple (>1) holders of the requested data.
system.tol2bus.snoop_filter.hit_multi_snoops            0                       # Number of snoops hitting in the snoop filter with multiple (>1) holders of the requested data.
system.tol2bus.snoop_filter.hit_single_requests         4731                       # Number of requests hitting in the snoop filter with a single holder of the requested data.
system.tol2bus.snoop_filter.hit_single_snoops            8                       # Number of snoops hitting in the snoop filter with a single holder of the requested data.
system.tol2bus.snoop_filter.tot_requests        10614                       # Total number of requests made to the snoop filter.
system.tol2bus.snoop_filter.tot_snoops              8                       # Total number of snoops made to the snoop filter.
system.membus.trans_dist::ReadResp               2019                       # Transaction distribution
system.membus.trans_dist::WritebackDirty         1154                       # Transaction distribution
system.membus.trans_dist::CleanEvict               16                       # Transaction distribution
system.membus.trans_dist::ReadExReq              3561                       # Transaction distribution
system.membus.trans_dist::ReadExResp             3561                       # Transaction distribution
system.membus.trans_dist::ReadSharedReq          2019                       # Transaction distribution
system.membus.trans_dist::InvalidateReq             7                       # Transaction distribution
system.membus.pkt_count_system.l2.mem_side::system.mem_ctrls.port        12337                       # Packet count per connected master and slave (bytes)
system.membus.pkt_count::total                  12337                       # Packet count per connected master and slave (bytes)
system.membus.pkt_size_system.l2.mem_side::system.mem_ctrls.port       430976                       # Cumulative packet size per connected master and slave (bytes)
system.membus.pkt_size::total                  430976                       # Cumulative packet size per connected master and slave (bytes)
system.membus.snoops                                0                       # Total snoops (count)
system.membus.snoopTraffic                          0                       # Total snoop traffic (bytes)
system.membus.snoop_fanout::samples              5587                       # Request fanout histogram
system.membus.snoop_fanout::mean                    0                       # Request fanout histogram
system.membus.snoop_fanout::stdev                   0                       # Request fanout histogram
system.membus.snoop_fanout::underflows              0      0.00%      0.00% # Request fanout histogram
system.membus.snoop_fanout::0                    5587    100.00%    100.00% # Request fanout histogram
system.membus.snoop_fanout::1                       0      0.00%    100.00% # Request fanout histogram
system.membus.snoop_fanout::overflows               0      0.00%    100.00% # Request fanout histogram
system.membus.snoop_fanout::min_value               0                       # Request fanout histogram
system.membus.snoop_fanout::max_value               0                       # Request fanout histogram
system.membus.snoop_fanout::total                5587                       # Request fanout histogram
system.membus.reqLayer0.occupancy            12210500                       # Layer occupancy (ticks)
system.membus.reqLayer0.utilization               3.2                       # Layer utilization (%)
system.membus.respLayer1.occupancy           28812500                       # Layer occupancy (ticks)
system.membus.respLayer1.utilization              7.6                       # Layer utilization (%)
system.membus.power_state.pwrStateResidencyTicks::UNDEFINED    377548000                       # Cumulative time (in ticks) in various power states
system.tol2bus.trans_dist::ReadResp              2288                       # Transaction distribution
system.tol2bus.trans_dist::WritebackDirty         4375                       # Transaction distribution
system.tol2bus.trans_dist::WritebackClean          610                       # Transaction distribution
system.tol2bus.trans_dist::CleanEvict             924                       # Transaction distribution
system.tol2bus.trans_dist::ReadExReq             3587                       # Transaction distribution
system.tol2bus.trans_dist::ReadExResp            3587                       # Transaction distribution
system.tol2bus.trans_dist::ReadCleanReq           738                       # Transaction distribution
system.tol2bus.trans_dist::ReadSharedReq         1550                       # Transaction distribution
system.tol2bus.trans_dist::InvalidateReq            8                       # Transaction distribution
system.tol2bus.trans_dist::InvalidateResp            8                       # Transaction distribution
system.tol2bus.pkt_count_system.cpu.icache.mem_side::system.l2.cpu_side         2086                       # Packet count per connected master and slave (bytes)
system.tol2bus.pkt_count_system.cpu.dcache.mem_side::system.l2.cpu_side        14411                       # Packet count per connected master and slave (bytes)
system.tol2bus.pkt_count::total                 16497                       # Packet count per connected master and slave (bytes)
system.tol2bus.pkt_size_system.cpu.icache.mem_side::system.l2.cpu_side        86272                       # Cumulative packet size per connected master and slave (bytes)
system.tol2bus.pkt_size_system.cpu.dcache.mem_side::system.l2.cpu_side       534912                       # Cumulative packet size per connected master and slave (bytes)
system.tol2bus.pkt_size::total                 621184                       # Cumulative packet size per connected master and slave (bytes)
system.tol2bus.snoops                            1178                       # Total snoops (count)
system.tol2bus.snoopTraffic                     73856                       # Total snoop traffic (bytes)
system.tol2bus.snoop_fanout::samples             7061                       # Request fanout histogram
system.tol2bus.snoop_fanout::mean            0.001275                       # Request fanout histogram
system.tol2bus.snoop_fanout::stdev           0.035681                       # Request fanout histogram
system.tol2bus.snoop_fanout::underflows             0      0.00%      0.00% # Request fanout histogram
system.tol2bus.snoop_fanout::0                   7052     99.87%     99.87% # Request fanout histogram
system.tol2bus.snoop_fanout::1                      9      0.13%    100.00% # Request fanout histogram
system.tol2bus.snoop_fanout::2                      0      0.00%    100.00% # Request fanout histogram
system.tol2bus.snoop_fanout::overflows              0      0.00%    100.00% # Request fanout histogram
system.tol2bus.snoop_fanout::min_value              0                       # Request fanout histogram
system.tol2bus.snoop_fanout::max_value              1                       # Request fanout histogram
system.tol2bus.snoop_fanout::total               7061                       # Request fanout histogram
system.tol2bus.reqLayer0.occupancy            9173866                       # Layer occupancy (ticks)
system.tol2bus.reqLayer0.utilization              2.4                       # Layer utilization (%)
system.tol2bus.respLayer1.occupancy           7710498                       # Layer occupancy (ticks)
system.tol2bus.respLayer1.utilization             2.0                       # Layer utilization (%)
system.tol2bus.respLayer0.occupancy           1107499                       # Layer occupancy (ticks)
system.tol2bus.respLayer0.utilization             0.3                       # Layer utilization (%)
system.tol2bus.power_state.pwrStateResidencyTicks::UNDEFINED    377548000                       # Cumulative time (in ticks) in various power states
system.voltage_domain.voltage                       1                       # Voltage in Volts
system.clk_domain.clock                          1000                       # Clock period in ticks
system.l2.demand_hits::.cpu.inst                  115                       # number of demand (read+write) hits
system.l2.demand_hits::.cpu.data                   68                       # number of demand (read+write) hits
system.l2.demand_hits::.cpu.icache.prefetcher          112                       # number of demand (read+write) hits
system.l2.demand_hits::total                      295                       # number of demand (read+write) hits
system.l2.overall_hits::.cpu.inst                 115                       # number of overall hits
system.l2.overall_hits::.cpu.data                  68                       # number of overall hits
system.l2.overall_hits::.cpu.icache.prefetcher          112                       # number of overall hits
system.l2.overall_hits::total                     295                       # number of overall hits
system.l2.demand_misses::.cpu.inst                511                       # number of demand (read+write) misses
system.l2.demand_misses::.cpu.data               5069                       # number of demand (read+write) misses
system.l2.demand_misses::total                   5580                       # number of demand (read+write) misses
system.l2.overall_misses::.cpu.inst               511                       # number of overall misses
system.l2.overall_misses::.cpu.data              5069                       # number of overall misses
system.l2.overall_misses::total                  5580                       # number of overall misses
system.l2.demand_miss_latency::.cpu.inst     41130500                       # number of demand (read+write) miss cycles
system.l2.demand_miss_latency::.cpu.data    443778500                       # number of demand (read+write) miss cycles
system.l2.demand_miss_latency::total        484909000                       # number of demand (read+write) miss cycles
system.l2.overall_miss_latency::.cpu.inst     41130500                       # number of overall miss cycles
system.l2.overall_miss_latency::.cpu.data    443778500                       # number of overall miss cycles
system.l2.overall_miss_latency::total       484909000                       # number of overall miss cycles
system.l2.demand_accesses::.cpu.inst              626                       # number of demand (read+write) accesses
system.l2.demand_accesses::.cpu.data             5137                       # number of demand (read+write) accesses
system.l2.demand_accesses::.cpu.icache.prefetcher          112                       # number of demand (read+write) accesses
system.l2.demand_accesses::total                 5875                       # number of demand (read+write) accesses
system.l2.overall_accesses::.cpu.inst             626                       # number of overall (read+write) accesses
system.l2.overall_accesses::.cpu.data            5137                       # number of overall (read+write) accesses
system.l2.overall_accesses::.cpu.icache.prefetcher          112                       # number of overall (read+write) accesses
system.l2.overall_accesses::total                5875                       # number of overall (read+write) accesses
system.l2.demand_miss_rate::.cpu.inst        0.816294                       # miss rate for demand accesses
system.l2.demand_miss_rate::.cpu.data        0.986763                       # miss rate for demand accesses
system.l2.demand_miss_rate::total            0.949787                       # miss rate for demand accesses
system.l2.overall_miss_rate::.cpu.inst       0.816294                       # miss rate for overall accesses
system.l2.overall_miss_rate::.cpu.data       0.986763                       # miss rate for overall accesses
system.l2.overall_miss_rate::total           0.949787                       # miss rate for overall accesses
system.l2.demand_avg_miss_latency::.cpu.inst 80490.215264                       # average overall miss latency
system.l2.demand_avg_miss_latency::.cpu.data 87547.543894                       # average overall miss latency
system.l2.demand_avg_miss_latency::total 86901.254480                       # average overall miss latency
system.l2.overall_avg_miss_latency::.cpu.inst 80490.215264                       # average overall miss latency
system.l2.overall_avg_miss_latency::.cpu.data 87547.543894                       # average overall miss latency
system.l2.overall_avg_miss_latency::total 86901.254480                       # average overall miss latency
system.l2.blocked_cycles::no_mshrs                  0                       # number of cycles access was blocked
system.l2.blocked_cycles::no_targets                0                       # number of cycles access was blocked
system.l2.blocked::no_mshrs                         0                       # number of cycles access was blocked
system.l2.blocked::no_targets                       0                       # number of cycles access was blocked
system.l2.avg_blocked_cycles::no_mshrs            nan                       # average number of cycles each access was blocked
system.l2.avg_blocked_cycles::no_targets          nan                       # average number of cycles each access was blocked
system.l2.writebacks::.writebacks                1154                       # number of writebacks
system.l2.writebacks::total                      1154                       # number of writebacks
system.l2.demand_mshr_misses::.cpu.inst           511                       # number of demand (read+write) MSHR misses
system.l2.demand_mshr_misses::.cpu.data          5069                       # number of demand (read+write) MSHR misses
system.l2.demand_mshr_misses::total              5580                       # number of demand (read+write) MSHR misses
system.l2.overall_mshr_misses::.cpu.inst          511                       # number of overall MSHR misses
system.l2.overall_mshr_misses::.cpu.data         5069                       # number of overall MSHR misses
system.l2.overall_mshr_misses::total             5580                       # number of overall MSHR misses
system.l2.demand_mshr_miss_latency::.cpu.inst     36020500                       # number of demand (read+write) MSHR miss cycles
system.l2.demand_mshr_miss_latency::.cpu.data    393088500                       # number of demand (read+write) MSHR miss cycles
system.l2.demand_mshr_miss_latency::total    429109000                       # number of demand (read+write) MSHR miss cycles
system.l2.overall_mshr_miss_latency::.cpu.inst     36020500                       # number of overall MSHR miss cycles
system.l2.overall_mshr_miss_latency::.cpu.data    393088500                       # number of overall MSHR miss cycles
system.l2.overall_mshr_miss_latency::total    429109000                       # number of overall MSHR miss cycles
system.l2.demand_mshr_miss_rate::.cpu.inst     0.816294                       # mshr miss rate for demand accesses
system.l2.demand_mshr_miss_rate::.cpu.data     0.986763                       # mshr miss rate for demand accesses
system.l2.demand_mshr_miss_rate::total       0.949787                       # mshr miss rate for demand accesses
system.l2.overall_mshr_miss_rate::.cpu.inst     0.816294                       # mshr miss rate for overall accesses
system.l2.overall_mshr_miss_rate::.cpu.data     0.986763                       # mshr miss rate for overall accesses
system.l2.overall_mshr_miss_rate::total      0.949787                       # mshr miss rate for overall accesses
system.l2.demand_avg_mshr_miss_latency::.cpu.inst 70490.215264                       # average overall mshr miss latency
system.l2.demand_avg_mshr_miss_latency::.cpu.data 77547.543894                       # average overall mshr miss latency
system.l2.demand_avg_mshr_miss_latency::total 76901.254480                       # average overall mshr miss latency
system.l2.overall_avg_mshr_miss_latency::.cpu.inst 70490.215264                       # average overall mshr miss latency
system.l2.overall_avg_mshr_miss_latency::.cpu.data 77547.543894                       # average overall mshr miss latency
system.l2.overall_avg_mshr_miss_latency::total 76901.254480                       # average overall mshr miss latency
system.l2.replacements                           1178                       # number of replacements
system.l2.WritebackDirty_hits::.writebacks         3221                       # number of WritebackDirty hits
system.l2.WritebackDirty_hits::total             3221                       # number of WritebackDirty hits
system.l2.WritebackDirty_accesses::.writebacks         3221                       # number of WritebackDirty accesses(hits+misses)
system.l2.WritebackDirty_accesses::total         3221                       # number of WritebackDirty accesses(hits+misses)
system.l2.WritebackClean_hits::.writebacks          610                       # number of WritebackClean hits
system.l2.WritebackClean_hits::total              610                       # number of WritebackClean hits
system.l2.WritebackClean_accesses::.writebacks          610                       # number of WritebackClean accesses(hits+misses)
system.l2.WritebackClean_accesses::total          610                       # number of WritebackClean accesses(hits+misses)
system.l2.ReadExReq_hits::.cpu.data                26                       # number of ReadExReq hits
system.l2.ReadExReq_hits::total                    26                       # number of ReadExReq hits
system.l2.ReadExReq_misses::.cpu.data            3561                       # number of ReadExReq misses
system.l2.ReadExReq_misses::total                3561                       # number of ReadExReq misses
system.l2.ReadExReq_miss_latency::.cpu.data    323508500                       # number of ReadExReq miss cycles
system.l2.ReadExReq_miss_latency::total     323508500                       # number of ReadExReq miss cycles
system.l2.ReadExReq_accesses::.cpu.data          3587                       # number of ReadExReq accesses(hits+misses)
system.l2.ReadExReq_accesses::total              3587                       # number of ReadExReq accesses(hits+misses)
system.l2.ReadExReq_miss_rate::.cpu.data     0.992752                       # miss rate for ReadExReq accesses
system.l2.ReadExReq_miss_rate::total         0.992752                       # miss rate for ReadExReq accesses
system.l2.ReadExReq_avg_miss_latency::.cpu.data 90847.655153                       # average ReadExReq miss latency
system.l2.ReadExReq_avg_miss_latency::total 90847.655153                       # average ReadExReq miss latency
system.l2.ReadExReq_mshr_misses::.cpu.data         3561                       # number of ReadExReq MSHR misses
system.l2.ReadExReq_mshr_misses::total           3561                       # number of ReadExReq MSHR misses
system.l2.ReadExReq_mshr_miss_latency::.cpu.data    287898500                       # number of ReadExReq MSHR miss cycles
system.l2.ReadExReq_mshr_miss_latency::total    287898500                       # number of ReadExReq MSHR miss cycles
system.l2.ReadExReq_mshr_miss_rate::.cpu.data     0.992752                       # mshr miss rate for ReadExReq accesses
system.l2.ReadExReq_mshr_miss_rate::total     0.992752                       # mshr miss rate for ReadExReq accesses
system.l2.ReadExReq_avg_mshr_miss_latency::.cpu.data 80847.655153                       # average ReadExReq mshr miss latency
system.l2.ReadExReq_avg_mshr_miss_latency::total 80847.655153                       # average ReadExReq mshr miss latency
system.l2.ReadCleanReq_hits::.cpu.inst            115                       # number of ReadCleanReq hits
system.l2.ReadCleanReq_hits::.cpu.icache.prefetcher          112                       # number of ReadCleanReq hits
system.l2.ReadCleanReq_hits::total                227                       # number of ReadCleanReq hits
system.l2.ReadCleanReq_misses::.cpu.inst          511                       # number of ReadCleanReq misses
system.l2.ReadCleanReq_misses::total              511                       # number of ReadCleanReq misses
system.l2.ReadCleanReq_miss_latency::.cpu.inst     41130500                       # number of ReadCleanReq miss cycles
[...]
system.cpu.dcache.demand_hits::total           465074                       # number of demand (read+write) hits
system.cpu.dcache.overall_hits::.cpu.data       465090                       # number of overall hits
system.cpu.dcache.overall_hits::total          465090                       # number of overall hits
system.cpu.dcache.demand_misses::.cpu.data         8658                       # number of demand (read+write) misses
system.cpu.dcache.demand_misses::total           8658                       # number of demand (read+write) misses
system.cpu.dcache.overall_misses::.cpu.data         8661                       # number of overall misses
system.cpu.dcache.overall_misses::total          8661                       # number of overall misses
system.cpu.dcache.demand_miss_latency::.cpu.data    658268825                       # number of demand (read+write) miss cycles
system.cpu.dcache.demand_miss_latency::total    658268825                       # number of demand (read+write) miss cycles
system.cpu.dcache.overall_miss_latency::.cpu.data    658268825                       # number of overall miss cycles
system.cpu.dcache.overall_miss_latency::total    658268825                       # number of overall miss cycles
system.cpu.dcache.demand_accesses::.cpu.data       473732                       # number of demand (read+write) accesses
system.cpu.dcache.demand_accesses::total       473732                       # number of demand (read+write) accesses
system.cpu.dcache.overall_accesses::.cpu.data       473751                       # number of overall (read+write) accesses
system.cpu.dcache.overall_accesses::total       473751                       # number of overall (read+write) accesses
system.cpu.dcache.demand_miss_rate::.cpu.data     0.018276                       # miss rate for demand accesses
system.cpu.dcache.demand_miss_rate::total     0.018276                       # miss rate for demand accesses
system.cpu.dcache.overall_miss_rate::.cpu.data     0.018282                       # miss rate for overall accesses
system.cpu.dcache.overall_miss_rate::total     0.018282                       # miss rate for overall accesses
system.cpu.dcache.demand_avg_miss_latency::.cpu.data 76030.125318                       # average overall miss latency
system.cpu.dcache.demand_avg_miss_latency::total 76030.125318                       # average overall miss latency
system.cpu.dcache.overall_avg_miss_latency::.cpu.data 76003.789978                       # average overall miss latency
system.cpu.dcache.overall_avg_miss_latency::total 76003.789978                       # average overall miss latency
system.cpu.dcache.blocked_cycles::no_mshrs       187607                       # number of cycles access was blocked
system.cpu.dcache.blocked_cycles::no_targets          380                       # number of cycles access was blocked
system.cpu.dcache.blocked::no_mshrs              2210                       # number of cycles access was blocked
system.cpu.dcache.blocked::no_targets               4                       # number of cycles access was blocked
system.cpu.dcache.avg_blocked_cycles::no_mshrs    84.890045                       # average number of cycles each access was blocked
system.cpu.dcache.avg_blocked_cycles::no_targets           95                       # average number of cycles each access was blocked
system.cpu.dcache.writebacks::.writebacks         3221                       # number of writebacks
system.cpu.dcache.writebacks::total              3221                       # number of writebacks
system.cpu.dcache.demand_mshr_hits::.cpu.data         3516                       # number of demand (read+write) MSHR hits
system.cpu.dcache.demand_mshr_hits::total         3516                       # number of demand (read+write) MSHR hits
system.cpu.dcache.overall_mshr_hits::.cpu.data         3516                       # number of overall MSHR hits
system.cpu.dcache.overall_mshr_hits::total         3516                       # number of overall MSHR hits
system.cpu.dcache.demand_mshr_misses::.cpu.data         5142                       # number of demand (read+write) MSHR misses
system.cpu.dcache.demand_mshr_misses::total         5142                       # number of demand (read+write) MSHR misses
system.cpu.dcache.overall_mshr_misses::.cpu.data         5145                       # number of overall MSHR misses
system.cpu.dcache.overall_mshr_misses::total         5145                       # number of overall MSHR misses
system.cpu.dcache.demand_mshr_miss_latency::.cpu.data    452249974                       # number of demand (read+write) MSHR miss cycles
system.cpu.dcache.demand_mshr_miss_latency::total    452249974                       # number of demand (read+write) MSHR miss cycles
system.cpu.dcache.overall_mshr_miss_latency::.cpu.data    452572474                       # number of overall MSHR miss cycles
system.cpu.dcache.overall_mshr_miss_latency::total    452572474                       # number of overall MSHR miss cycles
system.cpu.dcache.demand_mshr_miss_rate::.cpu.data     0.010854                       # mshr miss rate for demand accesses
system.cpu.dcache.demand_mshr_miss_rate::total     0.010854                       # mshr miss rate for demand accesses
system.cpu.dcache.overall_mshr_miss_rate::.cpu.data     0.010860                       # mshr miss rate for overall accesses
system.cpu.dcache.overall_mshr_miss_rate::total     0.010860                       # mshr miss rate for overall accesses
system.cpu.dcache.demand_avg_mshr_miss_latency::.cpu.data 87952.153637                       # average overall mshr miss latency
system.cpu.dcache.demand_avg_mshr_miss_latency::total 87952.153637                       # average overall mshr miss latency
system.cpu.dcache.overall_avg_mshr_miss_latency::.cpu.data 87963.551798                       # average overall mshr miss latency
system.cpu.dcache.overall_avg_mshr_miss_latency::total 87963.551798                       # average overall mshr miss latency
system.cpu.dcache.replacements                   4121                       # number of replacements
system.cpu.dcache.ReadReq_hits::.cpu.data       298733                       # number of ReadReq hits
system.cpu.dcache.ReadReq_hits::total          298733                       # number of ReadReq hits
system.cpu.dcache.ReadReq_misses::.cpu.data         2963                       # number of ReadReq misses
system.cpu.dcache.ReadReq_misses::total          2963                       # number of ReadReq misses
system.cpu.dcache.ReadReq_miss_latency::.cpu.data    207150500                       # number of ReadReq miss cycles
system.cpu.dcache.ReadReq_miss_latency::total    207150500                       # number of ReadReq miss cycles
system.cpu.dcache.ReadReq_accesses::.cpu.data       301696                       # number of ReadReq accesses(hits+misses)
system.cpu.dcache.ReadReq_accesses::total       301696                       # number of ReadReq accesses(hits+misses)
system.cpu.dcache.ReadReq_miss_rate::.cpu.data     0.009821                       # miss rate for ReadReq accesses
system.cpu.dcache.ReadReq_miss_rate::total     0.009821                       # miss rate for ReadReq accesses
system.cpu.dcache.ReadReq_avg_miss_latency::.cpu.data 69912.419845                       # average ReadReq miss latency
system.cpu.dcache.ReadReq_avg_miss_latency::total 69912.419845                       # average ReadReq miss latency
system.cpu.dcache.ReadReq_mshr_hits::.cpu.data         1416                       # number of ReadReq MSHR hits
system.cpu.dcache.ReadReq_mshr_hits::total         1416                       # number of ReadReq MSHR hits
system.cpu.dcache.ReadReq_mshr_misses::.cpu.data         1547                       # number of ReadReq MSHR misses
system.cpu.dcache.ReadReq_mshr_misses::total         1547                       # number of ReadReq MSHR misses
system.cpu.dcache.ReadReq_mshr_miss_latency::.cpu.data    122822500                       # number of ReadReq MSHR miss cycles
system.cpu.dcache.ReadReq_mshr_miss_latency::total    122822500                       # number of ReadReq MSHR miss cycles
system.cpu.dcache.ReadReq_mshr_miss_rate::.cpu.data     0.005128                       # mshr miss rate for ReadReq accesses
system.cpu.dcache.ReadReq_mshr_miss_rate::total     0.005128                       # mshr miss rate for ReadReq accesses
system.cpu.dcache.ReadReq_avg_mshr_miss_latency::.cpu.data 79393.988365                       # average ReadReq mshr miss latency
system.cpu.dcache.ReadReq_avg_mshr_miss_latency::total 79393.988365                       # average ReadReq mshr miss latency
system.cpu.dcache.WriteReq_hits::.cpu.data       166341                       # number of WriteReq hits
system.cpu.dcache.WriteReq_hits::total         166341                       # number of WriteReq hits
system.cpu.dcache.WriteReq_misses::.cpu.data         5688                       # number of WriteReq misses
system.cpu.dcache.WriteReq_misses::total         5688                       # number of WriteReq misses
system.cpu.dcache.WriteReq_miss_latency::.cpu.data    450895827                       # number of WriteReq miss cycles
system.cpu.dcache.WriteReq_miss_latency::total    450895827                       # number of WriteReq miss cycles
system.cpu.dcache.WriteReq_accesses::.cpu.data       172029                       # number of WriteReq accesses(hits+misses)
system.cpu.dcache.WriteReq_accesses::total       172029                       # number of WriteReq accesses(hits+misses)
system.cpu.dcache.WriteReq_miss_rate::.cpu.data     0.033064                       # miss rate for WriteReq accesses
system.cpu.dcache.WriteReq_miss_rate::total     0.033064                       # miss rate for WriteReq accesses
system.cpu.dcache.WriteReq_avg_miss_latency::.cpu.data 79271.418249                       # average WriteReq miss latency
system.cpu.dcache.WriteReq_avg_miss_latency::total 79271.418249                       # average WriteReq miss latency
system.cpu.dcache.WriteReq_mshr_hits::.cpu.data         2100                       # number of WriteReq MSHR hits
system.cpu.dcache.WriteReq_mshr_hits::total         2100                       # number of WriteReq MSHR hits
system.cpu.dcache.WriteReq_mshr_misses::.cpu.data         3588                       # number of WriteReq MSHR misses
system.cpu.dcache.WriteReq_mshr_misses::total         3588                       # number of WriteReq MSHR misses
system.cpu.dcache.WriteReq_mshr_miss_latency::.cpu.data    329211976                       # number of WriteReq MSHR miss cycles
system.cpu.dcache.WriteReq_mshr_miss_latency::total    329211976                       # number of WriteReq MSHR miss cycles
system.cpu.dcache.WriteReq_mshr_miss_rate::.cpu.data     0.020857                       # mshr miss rate for WriteReq accesses
system.cpu.dcache.WriteReq_mshr_miss_rate::total     0.020857                       # mshr miss rate for WriteReq accesses
system.cpu.dcache.WriteReq_avg_mshr_miss_latency::.cpu.data 91753.616499                       # average WriteReq mshr miss latency
system.cpu.dcache.WriteReq_avg_mshr_miss_latency::total 91753.616499                       # average WriteReq mshr miss latency
system.cpu.dcache.SoftPFReq_hits::.cpu.data           16                       # number of SoftPFReq hits
system.cpu.dcache.SoftPFReq_hits::total            16                       # number of SoftPFReq hits
system.cpu.dcache.SoftPFReq_misses::.cpu.data            3                       # number of SoftPFReq misses
system.cpu.dcache.SoftPFReq_misses::total            3                       # number of SoftPFReq misses
system.cpu.dcache.SoftPFReq_accesses::.cpu.data           19                       # number of SoftPFReq accesses(hits+misses)
system.cpu.dcache.SoftPFReq_accesses::total           19                       # number of SoftPFReq accesses(hits+misses)
system.cpu.dcache.SoftPFReq_miss_rate::.cpu.data     0.157895                       # miss rate for SoftPFReq accesses
system.cpu.dcache.SoftPFReq_miss_rate::total     0.157895                       # miss rate for SoftPFReq accesses
system.cpu.dcache.SoftPFReq_mshr_misses::.cpu.data            3                       # number of SoftPFReq MSHR misses
system.cpu.dcache.SoftPFReq_mshr_misses::total            3                       # number of SoftPFReq MSHR misses
system.cpu.dcache.SoftPFReq_mshr_miss_latency::.cpu.data       322500                       # number of SoftPFReq MSHR miss cycles
system.cpu.dcache.SoftPFReq_mshr_miss_latency::total       322500                       # number of SoftPFReq MSHR miss cycles
system.cpu.dcache.SoftPFReq_mshr_miss_rate::.cpu.data     0.157895                       # mshr miss rate for SoftPFReq accesses
system.cpu.dcache.SoftPFReq_mshr_miss_rate::total     0.157895                       # mshr miss rate for SoftPFReq accesses
system.cpu.dcache.SoftPFReq_avg_mshr_miss_latency::.cpu.data       107500                       # average SoftPFReq mshr miss latency
system.cpu.dcache.SoftPFReq_avg_mshr_miss_latency::total       107500                       # average SoftPFReq mshr miss latency
system.cpu.dcache.WriteLineReq_misses::.cpu.data            7                       # number of WriteLineReq misses
system.cpu.dcache.WriteLineReq_misses::total            7                       # number of WriteLineReq misses
system.cpu.dcache.WriteLineReq_miss_latency::.cpu.data       222498                       # number of WriteLineReq miss cycles
system.cpu.dcache.WriteLineReq_miss_latency::total       222498                       # number of WriteLineReq miss cycles
system.cpu.dcache.WriteLineReq_accesses::.cpu.data            7                       # number of WriteLineReq accesses(hits+misses)
system.cpu.dcache.WriteLineReq_accesses::total            7                       # number of WriteLineReq accesses(hits+misses)
system.cpu.dcache.WriteLineReq_miss_rate::.cpu.data            1                       # miss rate for WriteLineReq accesses
system.cpu.dcache.WriteLineReq_miss_rate::total            1                       # miss rate for WriteLineReq accesses
system.cpu.dcache.WriteLineReq_avg_miss_latency::.cpu.data 31785.428571                       # average WriteLineReq miss latency
system.cpu.dcache.WriteLineReq_avg_miss_latency::total 31785.428571                       # average WriteLineReq miss latency
system.cpu.dcache.WriteLineReq_mshr_misses::.cpu.data            7                       # number of WriteLineReq MSHR misses
system.cpu.dcache.WriteLineReq_mshr_misses::total            7                       # number of WriteLineReq MSHR misses
system.cpu.dcache.WriteLineReq_mshr_miss_latency::.cpu.data       215498                       # number of WriteLineReq MSHR miss cycles
system.cpu.dcache.WriteLineReq_mshr_miss_latency::total       215498                       # number of WriteLineReq MSHR miss cycles
system.cpu.dcache.WriteLineReq_mshr_miss_rate::.cpu.data            1                       # mshr miss rate for WriteLineReq accesses
system.cpu.dcache.WriteLineReq_mshr_miss_rate::total            1                       # mshr miss rate for WriteLineReq accesses
system.cpu.dcache.WriteLineReq_avg_mshr_miss_latency::.cpu.data 30785.428571                       # average WriteLineReq mshr miss latency
system.cpu.dcache.WriteLineReq_avg_mshr_miss_latency::total 30785.428571                       # average WriteLineReq mshr miss latency
system.cpu.dcache.LoadLockedReq_hits::.cpu.data           45                       # number of LoadLockedReq hits
system.cpu.dcache.LoadLockedReq_hits::total           45                       # number of LoadLockedReq hits
system.cpu.dcache.LoadLockedReq_misses::.cpu.data            2                       # number of LoadLockedReq misses
system.cpu.dcache.LoadLockedReq_misses::total            2                       # number of LoadLockedReq misses
system.cpu.dcache.LoadLockedReq_miss_latency::.cpu.data        78500                       # number of LoadLockedReq miss cycles
system.cpu.dcache.LoadLockedReq_miss_latency::total        78500                       # number of LoadLockedReq miss cycles
system.cpu.dcache.LoadLockedReq_accesses::.cpu.data           47                       # number of LoadLockedReq accesses(hits+misses)
system.cpu.dcache.LoadLockedReq_accesses::total           47                       # number of LoadLockedReq accesses(hits+misses)
system.cpu.dcache.LoadLockedReq_miss_rate::.cpu.data     0.042553                       # miss rate for LoadLockedReq accesses
system.cpu.dcache.LoadLockedReq_miss_rate::total     0.042553                       # miss rate for LoadLockedReq accesses
system.cpu.dcache.LoadLockedReq_avg_miss_latency::.cpu.data        39250                       # average LoadLockedReq miss latency
system.cpu.dcache.LoadLockedReq_avg_miss_latency::total        39250                       # average LoadLockedReq miss latency
system.cpu.dcache.LoadLockedReq_mshr_hits::.cpu.data            2                       # number of LoadLockedReq MSHR hits
system.cpu.dcache.LoadLockedReq_mshr_hits::total            2                       # number of LoadLockedReq MSHR hits
system.cpu.dcache.StoreCondReq_hits::.cpu.data           36                       # number of StoreCondReq hits
system.cpu.dcache.StoreCondReq_hits::total           36                       # number of StoreCondReq hits
system.cpu.dcache.StoreCondReq_accesses::.cpu.data           36                       # number of StoreCondReq accesses(hits+misses)
system.cpu.dcache.StoreCondReq_accesses::total           36                       # number of StoreCondReq accesses(hits+misses)
system.cpu.dcache.power_state.pwrStateResidencyTicks::UNDEFINED    377548000                       # Cumulative time (in ticks) in various power states
system.cpu.dcache.tags.tagsinuse           729.777995                       # Cycle average of tags in use
system.cpu.dcache.tags.total_refs              470316                       # Total number of references to valid blocks.
system.cpu.dcache.tags.sampled_refs              5145                       # Sample count of references to valid blocks.
system.cpu.dcache.tags.avg_refs             91.412245                       # Average number of references to valid blocks.
system.cpu.dcache.tags.warmup_cycle            176500                       # Cycle when the warmup percentage was hit.
system.cpu.dcache.tags.occ_blocks::.cpu.data   729.777995                       # Average occupied blocks per requestor
system.cpu.dcache.tags.occ_percent::.cpu.data     0.712674                       # Average percentage of cache occupancy
system.cpu.dcache.tags.occ_percent::total     0.712674                       # Average percentage of cache occupancy
system.cpu.dcache.tags.occ_task_id_blocks::1024         1024                       # Occupied blocks per task id
system.cpu.dcache.tags.age_task_id_blocks_1024::0           16                       # Occupied blocks per task id
system.cpu.dcache.tags.age_task_id_blocks_1024::1          288                       # Occupied blocks per task id
system.cpu.dcache.tags.age_task_id_blocks_1024::2          720                       # Occupied blocks per task id
system.cpu.dcache.tags.occ_task_id_percent::1024            1                       # Percentage of cache occupancy per task id
system.cpu.dcache.tags.tag_accesses            952813                       # Number of tag accesses
system.cpu.dcache.tags.data_accesses           952813                       # Number of data accesses
system.cpu.dcache.tags.power_state.pwrStateResidencyTicks::UNDEFINED    377548000                       # Cumulative time (in ticks) in various power states
system.cpu.power_state.pwrStateResidencyTicks::ON    377548000                       # Cumulative time (in ticks) in various power states

---------- End Simulation Statistics   ----------
