
---------- Begin Simulation Statistics ----------
final_tick                                 2471937500                       # Number of ticks from beginning of simulation (restored from checkpoints and never reset)
host_inst_rate                                 203213                       # Simulator instruction rate (inst/s)
host_mem_usage                                 860916                       # Number of bytes of host memory used
host_op_rate                                   213648                       # Simulator op (including micro ops) rate (op/s)
host_seconds                                    49.21                       # Real time elapsed on the host
host_tick_rate                               50232671                       # Simulator tick rate (ticks/s)
sim_freq                                 1000000000000                       # Frequency of simulated ticks
sim_insts                                    10000005                       # Number of instructions simulated
sim_ops                                      10513546                       # Number of ops (including micro ops) simulated
sim_seconds                                  0.002472                       # Number of seconds simulated
sim_ticks                                  2471937500                       # Number of ticks simulated
system.cpu.branchPred.BTBCorrect                    0                       # Number of correct BTB predictions (this stat may not work properly.
system.cpu.branchPred.BTBHitPct             99.902591                       # BTB Hit Percentage
system.cpu.branchPred.BTBHits                  834835                       # Number of BTB hits
system.cpu.branchPred.BTBLookups               835649                       # Number of BTB lookups
system.cpu.branchPred.RASInCorrect                  1                       # Number of incorrect RAS predictions.
system.cpu.branchPred.condIncorrect             20081                       # Number of conditional branches incorrect
system.cpu.branchPred.condPredicted           1340090                       # Number of conditional branches predicted
system.cpu.branchPred.indirectHits                 50                       # Number of indirect target hits.
system.cpu.branchPred.indirectLookups             200                       # Number of indirect predictor lookups.
system.cpu.branchPred.indirectMisses              150                       # Number of indirect misses.
system.cpu.branchPred.lookups                 1844429                       # Number of BP lookups
system.cpu.branchPred.usedRAS                   12064                       # Number of times the RAS was used to get a target.
system.cpu.branchPredindirectMispredicted           54                       # Number of mispredicted indirect branches.
system.cpu.cc_regfile_reads                   2423307                       # number of cc regfile reads
system.cpu.cc_regfile_writes                  2427171                       # number of cc regfile writes
system.cpu.commit.amos                              0                       # Number of atomic instructions committed
system.cpu.commit.branchMispredicts             19857                       # The number of times a branch was mispredicted
system.cpu.commit.branches                    1664146                       # Number of branches committed
system.cpu.commit.bw_lim_events                903714                       # number cycles where commit BW limit reached
system.cpu.commit.commitNonSpecStalls              60                       # The number of times commit has been forced to stall to communicate backwards
system.cpu.commit.commitSquashedInsts          807788                       # The number of squashed insts skipped by commit
system.cpu.commit.committedInsts             10008737                       # Number of instructions committed
system.cpu.commit.committedOps               10522278                       # Number of ops (including micro ops) committed
system.cpu.commit.committed_per_cycle::samples      4787920                       # Number of insts commited each cycle
system.cpu.commit.committed_per_cycle::mean     2.197672                       # Number of insts commited each cycle
system.cpu.commit.committed_per_cycle::stdev     3.047086                       # Number of insts commited each cycle
system.cpu.commit.committed_per_cycle::underflows            0      0.00%      0.00% # Number of insts commited each cycle
system.cpu.commit.committed_per_cycle::0      2059955     43.02%     43.02% # Number of insts commited each cycle
system.cpu.commit.committed_per_cycle::1      1169500     24.43%     67.45% # Number of insts commited each cycle
system.cpu.commit.committed_per_cycle::2       308341      6.44%     73.89% # Number of insts commited each cycle
system.cpu.commit.committed_per_cycle::3       172450      3.60%     77.49% # Number of insts commited each cycle
system.cpu.commit.committed_per_cycle::4        17815      0.37%     77.86% # Number of insts commited each cycle
system.cpu.commit.committed_per_cycle::5        64218      1.34%     79.21% # Number of insts commited each cycle
system.cpu.commit.committed_per_cycle::6        46805      0.98%     80.18% # Number of insts commited each cycle
system.cpu.commit.committed_per_cycle::7        45122      0.94%     81.13% # Number of insts commited each cycle
system.cpu.commit.committed_per_cycle::8       903714     18.87%    100.00% # Number of insts commited each cycle
system.cpu.commit.committed_per_cycle::overflows            0      0.00%    100.00% # Number of insts commited each cycle
system.cpu.commit.committed_per_cycle::min_value            0                       # Number of insts commited each cycle
system.cpu.commit.committed_per_cycle::max_value            8                       # Number of insts commited each cycle
system.cpu.commit.committed_per_cycle::total      4787920                       # Number of insts commited each cycle
system.cpu.commit.fp_insts                          0                       # Number of committed floating point instructions.
system.cpu.commit.function_calls                 9208                       # Number of function calls committed.
system.cpu.commit.int_insts                   9309990                       # Number of committed integer instructions.
system.cpu.commit.loads                       3851688                       # Number of loads committed
system.cpu.commit.membars                          36                       # Number of memory barriers committed
system.cpu.commit.op_class_0::No_OpClass            9      0.00%      0.00% # Class of committed instruction
system.cpu.commit.op_class_0::IntAlu          4977792     47.31%     47.31% # Class of committed instruction
system.cpu.commit.op_class_0::IntMult              63      0.00%     47.31% # Class of committed instruction
system.cpu.commit.op_class_0::IntDiv                3      0.00%     47.31% # Class of committed instruction
system.cpu.commit.op_class_0::FloatAdd              0      0.00%     47.31% # Class of committed instruction
system.cpu.commit.op_class_0::FloatCmp              0      0.00%     47.31% # Class of committed instruction
system.cpu.commit.op_class_0::FloatCvt              0      0.00%     47.31% # Class of committed instruction
system.cpu.commit.op_class_0::FloatMult             0      0.00%     47.31% # Class of committed instruction
system.cpu.commit.op_class_0::FloatMultAcc            0      0.00%     47.31% # Class of committed instruction
system.cpu.commit.op_class_0::FloatDiv              0      0.00%     47.31% # Class of committed instruction
system.cpu.commit.op_class_0::FloatMisc             0      0.00%     47.31% # Class of committed instruction
system.cpu.commit.op_class_0::FloatSqrt             0      0.00%     47.31% # Class of committed instruction
system.cpu.commit.op_class_0::SimdAdd              29      0.00%     47.31% # Class of committed instruction
system.cpu.commit.op_class_0::SimdAddAcc            0      0.00%     47.31% # Class of committed instruction
system.cpu.commit.op_class_0::SimdAlu              34      0.00%     47.31% # Class of committed instruction
system.cpu.commit.op_class_0::SimdCmp              36      0.00%     47.31% # Class of committed instruction
system.cpu.commit.op_class_0::SimdCvt               0      0.00%     47.31% # Class of committed instruction
system.cpu.commit.op_class_0::SimdMisc             26      0.00%     47.31% # Class of committed instruction
system.cpu.commit.op_class_0::SimdMult              0      0.00%     47.31% # Class of committed instruction
system.cpu.commit.op_class_0::SimdMultAcc            0      0.00%     47.31% # Class of committed instruction
system.cpu.commit.op_class_0::SimdShift             0      0.00%     47.31% # Class of committed instruction
system.cpu.commit.op_class_0::SimdShiftAcc            0      0.00%     47.31% # Class of committed instruction
system.cpu.commit.op_class_0::SimdDiv               0      0.00%     47.31% # Class of committed instruction
system.cpu.commit.op_class_0::SimdSqrt              0      0.00%     47.31% # Class of committed instruction
system.cpu.commit.op_class_0::SimdFloatAdd            0      0.00%     47.31% # Class of committed instruction
system.cpu.commit.op_class_0::SimdFloatAlu            0      0.00%     47.31% # Class of committed instruction
system.cpu.commit.op_class_0::SimdFloatCmp            0      0.00%     47.31% # Class of committed instruction
system.cpu.commit.op_class_0::SimdFloatCvt            0      0.00%     47.31% # Class of committed instruction
system.cpu.commit.op_class_0::SimdFloatDiv            0      0.00%     47.31% # Class of committed instruction
system.cpu.commit.op_class_0::SimdFloatMisc            0      0.00%     47.31% # Class of committed instruction
system.cpu.commit.op_class_0::SimdFloatMult            0      0.00%     47.31% # Class of committed instruction
system.cpu.commit.op_class_0::SimdFloatMultAcc            0      0.00%     47.31% # Class of committed instruction
system.cpu.commit.op_class_0::SimdFloatSqrt            0      0.00%     47.31% # Class of committed instruction
system.cpu.commit.op_class_0::SimdReduceAdd            0      0.00%     47.31% # Class of committed instruction
system.cpu.commit.op_class_0::SimdReduceAlu            0      0.00%     47.31% # Class of committed instruction
system.cpu.commit.op_class_0::SimdReduceCmp            0      0.00%     47.31% # Class of committed instruction
system.cpu.commit.op_class_0::SimdFloatReduceAdd            0      0.00%     47.31% # Class of committed instruction
system.cpu.commit.op_class_0::SimdFloatReduceCmp            0      0.00%     47.31% # Class of committed instruction
system.cpu.commit.op_class_0::SimdAes               0      0.00%     47.31% # Class of committed instruction
system.cpu.commit.op_class_0::SimdAesMix            0      0.00%     47.31% # Class of committed instruction
system.cpu.commit.op_class_0::SimdSha1Hash            0      0.00%     47.31% # Class of committed instruction
system.cpu.commit.op_class_0::SimdSha1Hash2            0      0.00%     47.31% # Class of committed instruction
system.cpu.commit.op_class_0::SimdSha256Hash            0      0.00%     47.31% # Class of committed instruction
system.cpu.commit.op_class_0::SimdSha256Hash2            0      0.00%     47.31% # Class of committed instruction
system.cpu.commit.op_class_0::SimdShaSigma2            0      0.00%     47.31% # Class of committed instruction
system.cpu.commit.op_class_0::SimdShaSigma3            0      0.00%     47.31% # Class of committed instruction
system.cpu.commit.op_class_0::SimdPredAlu            0      0.00%     47.31% # Class of committed instruction
system.cpu.commit.op_class_0::MemRead         3851688     36.61%     83.91% # Class of committed instruction
system.cpu.commit.op_class_0::MemWrite        1692598     16.09%    100.00% # Class of committed instruction
system.cpu.commit.op_class_0::FloatMemRead            0      0.00%    100.00% # Class of committed instruction
system.cpu.commit.op_class_0::FloatMemWrite            0      0.00%    100.00% # Class of committed instruction
system.cpu.commit.op_class_0::IprAccess             0      0.00%    100.00% # Class of committed instruction
system.cpu.commit.op_class_0::InstPrefetch            0      0.00%    100.00% # Class of committed instruction
system.cpu.commit.op_class_0::total          10522278                       # Class of committed instruction
system.cpu.commit.refs                        5544286                       # Number of memory references committed
system.cpu.commit.swp_count                         0                       # Number of s/w prefetches committed
system.cpu.commit.vec_insts                       224                       # Number of committed Vector instructions.
system.cpu.committedInsts                    10000005                       # Number of Instructions Simulated
system.cpu.committedOps                      10513546                       # Number of Ops (including micro ops) Simulated
system.cpu.cpi                               0.494387                       # CPI: Cycles Per Instruction
system.cpu.cpi_total                         0.494387                       # CPI: Total CPI of All Threads
system.cpu.decode.BlockedCycles               1474925                       # Number of cycles decode is blocked
system.cpu.decode.BranchMispred                   225                       # Number of times decode detected a branch misprediction
system.cpu.decode.BranchResolved               818304                       # Number of times decode resolved a branch
system.cpu.decode.DecodedInsts               11511524                       # Number of instructions handled by decode
system.cpu.decode.IdleCycles                  1195629                       # Number of cycles decode is idle
system.cpu.decode.RunCycles                   1916826                       # Number of cycles decode is running
system.cpu.decode.SquashCycles                  20948                       # Number of cycles decode is squashing
system.cpu.decode.SquashedInsts                   775                       # Number of squashed instructions handled by decode
system.cpu.decode.UnblockCycles                291095                       # Number of cycles decode is unblocking
system.cpu.dtb.accesses                             0                       # DTB accesses
system.cpu.dtb.align_faults                         0                       # Number of TLB faults due to alignment restrictions
system.cpu.dtb.domain_faults                        0                       # Number of TLB faults due to domain restrictions
system.cpu.dtb.flush_entries                        0                       # Number of entries that have been flushed from TLB
system.cpu.dtb.flush_tlb                            0                       # Number of times complete TLB was flushed
system.cpu.dtb.flush_tlb_asid                       0                       # Number of times TLB was flushed by ASID
system.cpu.dtb.flush_tlb_mva                        0                       # Number of times TLB was flushed by MVA
system.cpu.dtb.flush_tlb_mva_asid                   0                       # Number of times TLB was flushed by MVA & ASID
system.cpu.dtb.hits                                 0                       # DTB hits
system.cpu.dtb.inst_accesses                        0                       # ITB inst accesses
system.cpu.dtb.inst_hits                            0                       # ITB inst hits
system.cpu.dtb.inst_misses                          0                       # ITB inst misses
system.cpu.dtb.misses                               0                       # DTB misses
system.cpu.dtb.perms_faults                         0                       # Number of TLB faults due to permissions restrictions
system.cpu.dtb.prefetch_faults                      0                       # Number of TLB faults due to prefetch
system.cpu.dtb.read_accesses                        0                       # DTB read accesses
system.cpu.dtb.read_hits                            0                       # DTB read hits
system.cpu.dtb.read_misses                          0                       # DTB read misses
system.cpu.dtb.stage2_mmu.stage2_tlb.accesses            0                       # DTB accesses
system.cpu.dtb.stage2_mmu.stage2_tlb.align_faults            0                       # Number of TLB faults due to alignment restrictions
system.cpu.dtb.stage2_mmu.stage2_tlb.domain_faults            0                       # Number of TLB faults due to domain restrictions
system.cpu.dtb.stage2_mmu.stage2_tlb.flush_entries            0                       # Number of entries that have been flushed from TLB
system.cpu.dtb.stage2_mmu.stage2_tlb.flush_tlb            0                       # Number of times complete TLB was flushed
system.cpu.dtb.stage2_mmu.stage2_tlb.flush_tlb_asid            0                       # Number of times TLB was flushed by ASID
system.cpu.dtb.stage2_mmu.stage2_tlb.flush_tlb_mva            0                       # Number of times TLB was flushed by MVA
system.cpu.dtb.stage2_mmu.stage2_tlb.flush_tlb_mva_asid            0                       # Number of times TLB was flushed by MVA & ASID
system.cpu.dtb.stage2_mmu.stage2_tlb.hits            0                       # DTB hits
system.cpu.dtb.stage2_mmu.stage2_tlb.inst_accesses            0                       # ITB inst accesses
system.cpu.dtb.stage2_mmu.stage2_tlb.inst_hits            0                       # ITB inst hits
system.cpu.dtb.stage2_mmu.stage2_tlb.inst_misses            0                       # ITB inst misses
system.cpu.dtb.stage2_mmu.stage2_tlb.misses            0                       # DTB misses
system.cpu.dtb.stage2_mmu.stage2_tlb.perms_faults            0                       # Number of TLB faults due to permissions restrictions
system.cpu.dtb.stage2_mmu.stage2_tlb.prefetch_faults            0                       # Number of TLB faults due to prefetch
system.cpu.dtb.stage2_mmu.stage2_tlb.read_accesses            0                       # DTB read accesses
system.cpu.dtb.stage2_mmu.stage2_tlb.read_hits            0                       # DTB read hits
system.cpu.dtb.stage2_mmu.stage2_tlb.read_misses            0                       # DTB read misses
system.cpu.dtb.stage2_mmu.stage2_tlb.walker.walkRequestOrigin_Requested::Data            0                       # Table walker requests started/completed, data/inst
system.cpu.dtb.stage2_mmu.stage2_tlb.walker.walkRequestOrigin_Requested::Inst            0                       # Table walker requests started/completed, data/inst
system.cpu.dtb.stage2_mmu.stage2_tlb.walker.walkRequestOrigin_Requested::total            0                       # Table walker requests started/completed, data/inst
system.cpu.dtb.stage2_mmu.stage2_tlb.walker.walkRequestOrigin_Completed::Data            0                       # Table walker requests started/completed, data/inst
system.cpu.dtb.stage2_mmu.stage2_tlb.walker.walkRequestOrigin_Completed::Inst            0                       # Table walker requests started/completed, data/inst
system.cpu.dtb.stage2_mmu.stage2_tlb.walker.walkRequestOrigin_Completed::total            0                       # Table walker requests started/completed, data/inst
system.cpu.dtb.stage2_mmu.stage2_tlb.walker.walkRequestOrigin::total            0                       # Table walker requests started/completed, data/inst
system.cpu.dtb.stage2_mmu.stage2_tlb.walker.walks            0                       # Table walker walks requested
system.cpu.dtb.stage2_mmu.stage2_tlb.write_accesses            0                       # DTB write accesses
system.cpu.dtb.stage2_mmu.stage2_tlb.write_hits            0                       # DTB write hits
system.cpu.dtb.stage2_mmu.stage2_tlb.write_misses            0                       # DTB write misses
system.cpu.dtb.walker.walkRequestOrigin_Requested::Data            0                       # Table walker requests started/completed, data/inst
system.cpu.dtb.walker.walkRequestOrigin_Requested::Inst            0                       # Table walker requests started/completed, data/inst
system.cpu.dtb.walker.walkRequestOrigin_Requested::total            0                       # Table walker requests started/completed, data/inst
system.cpu.dtb.walker.walkRequestOrigin_Completed::Data            0                       # Table walker requests started/completed, data/inst
system.cpu.dtb.walker.walkRequestOrigin_Completed::Inst            0                       # Table walker requests started/completed, data/inst
system.cpu.dtb.walker.walkRequestOrigin_Completed::total            0                       # Table walker requests started/completed, data/inst
system.cpu.dtb.walker.walkRequestOrigin::total            0                       # Table walker requests started/completed, data/inst
system.cpu.dtb.walker.walks                         0                       # Table walker walks requested
system.cpu.dtb.write_accesses                       0                       # DTB write accesses
system.cpu.dtb.write_hits                           0                       # DTB write hits
system.cpu.dtb.write_misses                         0                       # DTB write misses
system.cpu.fetch.Branches                     1844429                       # Number of branches that fetch encountered
system.cpu.fetch.CacheLines                   1611072                       # Number of cache lines fetched
system.cpu.fetch.Cycles                       3239922                       # Number of cycles fetch has run and was not squashing or blocked
system.cpu.fetch.IcacheSquashes                  6835                       # Number of outstanding Icache misses that were squashed
system.cpu.fetch.IcacheWaitRetryStallCycles           35                       # Number of stall cycles due to full MSHR
system.cpu.fetch.Insts                       11128866                       # Number of instructions fetch has processed
system.cpu.fetch.MiscStallCycles                    3                       # Number of cycles fetch has spent waiting on interrupts, or bad addresses, or out of MSHRs
system.cpu.fetch.SquashCycles                   42344                       # Number of cycles fetch has spent squashing
system.cpu.fetch.branchRate                  0.373073                       # Number of branch fetches per cycle
system.cpu.fetch.icacheStallCycles            1638291                       # Number of cycles fetch is stalled on an Icache miss
system.cpu.fetch.predictedBranches             846949                       # Number of branches that fetch has predicted taken
system.cpu.fetch.rate                        2.251041                       # Number of inst fetches per cycle
system.cpu.fetch.rateDist::samples            4899423                       # Number of instructions fetched each cycle (Total)
system.cpu.fetch.rateDist::mean              2.384131                       # Number of instructions fetched each cycle (Total)
system.cpu.fetch.rateDist::stdev             3.195499                       # Number of instructions fetched each cycle (Total)
system.cpu.fetch.rateDist::underflows               0      0.00%      0.00% # Number of instructions fetched each cycle (Total)
system.cpu.fetch.rateDist::0                  2300435     46.95%     46.95% # Number of instructions fetched each cycle (Total)
system.cpu.fetch.rateDist::1                   944662     19.28%     66.23% # Number of instructions fetched each cycle (Total)
system.cpu.fetch.rateDist::2                   152585      3.11%     69.35% # Number of instructions fetched each cycle (Total)
system.cpu.fetch.rateDist::3                    25015      0.51%     69.86% # Number of instructions fetched each cycle (Total)
system.cpu.fetch.rateDist::4                   230759      4.71%     74.57% # Number of instructions fetched each cycle (Total)
system.cpu.fetch.rateDist::5                   109230      2.23%     76.80% # Number of instructions fetched each cycle (Total)
system.cpu.fetch.rateDist::6                    14971      0.31%     77.10% # Number of instructions fetched each cycle (Total)
system.cpu.fetch.rateDist::7                   177151      3.62%     80.72% # Number of instructions fetched each cycle (Total)
system.cpu.fetch.rateDist::8                   944615     19.28%    100.00% # Number of instructions fetched each cycle (Total)
system.cpu.fetch.rateDist::overflows                0      0.00%    100.00% # Number of instructions fetched each cycle (Total)
system.cpu.fetch.rateDist::min_value                0                       # Number of instructions fetched each cycle (Total)
system.cpu.fetch.rateDist::max_value                8                       # Number of instructions fetched each cycle (Total)
system.cpu.fetch.rateDist::total              4899423                       # Number of instructions fetched each cycle (Total)
system.cpu.idleCycles                           44453                       # Total number of cycles that the CPU has spent unscheduled due to idling
system.cpu.iew.branchMispredicts                20121                       # Number of branch mispredicts detected at execute
system.cpu.iew.exec_branches                  1745968                       # Number of branches executed
system.cpu.iew.exec_nop                         10579                       # number of nop insts executed
system.cpu.iew.exec_rate                     2.358417                       # Inst execution rate
system.cpu.iew.exec_refs                      6416909                       # number of memory reference insts executed
system.cpu.iew.exec_stores                    1779856                       # Number of stores executed
system.cpu.iew.exec_swp                             0                       # number of swp insts executed
system.cpu.iew.iewBlockCycles                  108307                       # Number of cycles IEW is blocking
system.cpu.iew.iewDispLoadInsts               4108998                       # Number of dispatched load instructions
system.cpu.iew.iewDispNonSpecInsts                 78                       # Number of dispatched non-speculative instructions
system.cpu.iew.iewDispSquashedInsts              3528                       # Number of squashed instructions skipped by dispatch
system.cpu.iew.iewDispStoreInsts              1844182                       # Number of dispatched store instructions
system.cpu.iew.iewDispatchedInsts            11333895                       # Number of instructions dispatched to IQ
system.cpu.iew.iewExecLoadInsts               4637053                       # Number of load instructions executed
system.cpu.iew.iewExecSquashedInsts             33876                       # Number of squashed instructions skipped in execute
system.cpu.iew.iewExecutedInsts              11659719                       # Number of executed instructions
system.cpu.iew.iewIQFullEvents                     16                       # Number of times the IQ has become full, causing a stall
system.cpu.iew.iewIdleCycles                        0                       # Number of cycles IEW is idle
system.cpu.iew.iewLSQFullEvents                126543                       # Number of times the LSQ has become full, causing a stall
system.cpu.iew.iewSquashCycles                  20948                       # Number of cycles IEW is squashing
system.cpu.iew.iewUnblockCycles                126199                       # Number of cycles IEW is unblocking
system.cpu.iew.lsq.thread0.blockedLoads             0                       # Number of blocked loads due to partial load-store forwarding
system.cpu.iew.lsq.thread0.cacheBlocked          4167                       # Number of times an access to memory failed due to the cache being blocked
system.cpu.iew.lsq.thread0.forwLoads          1182610                       # Number of loads that had data forwarded from stores
system.cpu.iew.lsq.thread0.ignoredResponses          861                       # Number of memory responses ignored because the instruction is squashed
system.cpu.iew.lsq.thread0.invAddrLoads             0                       # Number of loads ignored due to an invalid address
system.cpu.iew.lsq.thread0.invAddrSwpfs             0                       # Number of software prefetches ignored due to an invalid address
system.cpu.iew.lsq.thread0.memOrderViolation          287                       # Number of memory ordering violations
system.cpu.iew.lsq.thread0.rescheduledLoads       555453                       # Number of loads that were rescheduled
system.cpu.iew.lsq.thread0.squashedLoads       257292                       # Number of loads squashed
system.cpu.iew.lsq.thread0.squashedStores       151575                       # Number of stores squashed
system.cpu.iew.memOrderViolationEvents            287                       # Number of memory order violations
system.cpu.iew.predictedNotTakenIncorrect        12794                       # Number of branches that were predicted not taken incorrectly
system.cpu.iew.predictedTakenIncorrect           7327                       # Number of branches that were predicted taken incorrectly
system.cpu.iew.wb_consumers                  11488583                       # num instructions consuming a value
system.cpu.iew.wb_count                      10997397                       # cumulative count of insts written-back
system.cpu.iew.wb_fanout                     0.619548                       # average fanout of values written-back
system.cpu.iew.wb_producers                   7117723                       # num instructions producing a value
system.cpu.iew.wb_rate                       2.224448                       # insts written-back per cycle
system.cpu.iew.wb_sent                       11029477                       # cumulative count of insts sent to commit
system.cpu.int_regfile_reads                 13564249                       # number of integer regfile reads
system.cpu.int_regfile_writes                 7981738                       # number of integer regfile writes
system.cpu.ipc                               2.022705                       # IPC: Instructions Per Cycle
system.cpu.ipc_total                         2.022705                       # IPC: Total IPC of All Threads
system.cpu.iq.FU_type_0::No_OpClass                10      0.00%      0.00% # Type of FU issued
system.cpu.iq.FU_type_0::IntAlu               5252416     44.92%     44.92% # Type of FU issued
system.cpu.iq.FU_type_0::IntMult                   66      0.00%     44.92% # Type of FU issued
system.cpu.iq.FU_type_0::IntDiv                     5      0.00%     44.92% # Type of FU issued
system.cpu.iq.FU_type_0::FloatAdd                   0      0.00%     44.92% # Type of FU issued
system.cpu.iq.FU_type_0::FloatCmp                   0      0.00%     44.92% # Type of FU issued
system.cpu.iq.FU_type_0::FloatCvt                   0      0.00%     44.92% # Type of FU issued
system.cpu.iq.FU_type_0::FloatMult                  0      0.00%     44.92% # Type of FU issued
system.cpu.iq.FU_type_0::FloatMultAcc               0      0.00%     44.92% # Type of FU issued
system.cpu.iq.FU_type_0::FloatDiv                   0      0.00%     44.92% # Type of FU issued
system.cpu.iq.FU_type_0::FloatMisc                  0      0.00%     44.92% # Type of FU issued
system.cpu.iq.FU_type_0::FloatSqrt                  0      0.00%     44.92% # Type of FU issued
system.cpu.iq.FU_type_0::SimdAdd                   35      0.00%     44.92% # Type of FU issued
system.cpu.iq.FU_type_0::SimdAddAcc                 0      0.00%     44.92% # Type of FU issued
system.cpu.iq.FU_type_0::SimdAlu                   38      0.00%     44.92% # Type of FU issued
system.cpu.iq.FU_type_0::SimdCmp                   40      0.00%     44.92% # Type of FU issued
system.cpu.iq.FU_type_0::SimdCvt                    0      0.00%     44.92% # Type of FU issued
system.cpu.iq.FU_type_0::SimdMisc                  28      0.00%     44.92% # Type of FU issued
system.cpu.iq.FU_type_0::SimdMult                   0      0.00%     44.92% # Type of FU issued
system.cpu.iq.FU_type_0::SimdMultAcc                0      0.00%     44.92% # Type of FU issued
system.cpu.iq.FU_type_0::SimdShift                  0      0.00%     44.92% # Type of FU issued
system.cpu.iq.FU_type_0::SimdShiftAcc               0      0.00%     44.92% # Type of FU issued
system.cpu.iq.FU_type_0::SimdDiv                    0      0.00%     44.92% # Type of FU issued
system.cpu.iq.FU_type_0::SimdSqrt                   0      0.00%     44.92% # Type of FU issued
system.cpu.iq.FU_type_0::SimdFloatAdd               0      0.00%     44.92% # Type of FU issued
system.cpu.iq.FU_type_0::SimdFloatAlu               0      0.00%     44.92% # Type of FU issued
system.cpu.iq.FU_type_0::SimdFloatCmp               0      0.00%     44.92% # Type of FU issued
system.cpu.iq.FU_type_0::SimdFloatCvt               0      0.00%     44.92% # Type of FU issued
system.cpu.iq.FU_type_0::SimdFloatDiv               0      0.00%     44.92% # Type of FU issued
system.cpu.iq.FU_type_0::SimdFloatMisc              0      0.00%     44.92% # Type of FU issued
system.cpu.iq.FU_type_0::SimdFloatMult              0      0.00%     44.92% # Type of FU issued
system.cpu.iq.FU_type_0::SimdFloatMultAcc            0      0.00%     44.92% # Type of FU issued
system.cpu.iq.FU_type_0::SimdFloatSqrt              0      0.00%     44.92% # Type of FU issued
system.cpu.iq.FU_type_0::SimdReduceAdd              0      0.00%     44.92% # Type of FU issued
system.cpu.iq.FU_type_0::SimdReduceAlu              0      0.00%     44.92% # Type of FU issued
system.cpu.iq.FU_type_0::SimdReduceCmp              0      0.00%     44.92% # Type of FU issued
system.cpu.iq.FU_type_0::SimdFloatReduceAdd            0      0.00%     44.92% # Type of FU issued
system.cpu.iq.FU_type_0::SimdFloatReduceCmp            0      0.00%     44.92% # Type of FU issued
system.cpu.iq.FU_type_0::SimdAes                    0      0.00%     44.92% # Type of FU issued
system.cpu.iq.FU_type_0::SimdAesMix                 0      0.00%     44.92% # Type of FU issued
system.cpu.iq.FU_type_0::SimdSha1Hash               0      0.00%     44.92% # Type of FU issued
system.cpu.iq.FU_type_0::SimdSha1Hash2              0      0.00%     44.92% # Type of FU issued
system.cpu.iq.FU_type_0::SimdSha256Hash             0      0.00%     44.92% # Type of FU issued
system.cpu.iq.FU_type_0::SimdSha256Hash2            0      0.00%     44.92% # Type of FU issued
system.cpu.iq.FU_type_0::SimdShaSigma2              0      0.00%     44.92% # Type of FU issued
system.cpu.iq.FU_type_0::SimdShaSigma3              0      0.00%     44.92% # Type of FU issued
system.cpu.iq.FU_type_0::SimdPredAlu                0      0.00%     44.92% # Type of FU issued
system.cpu.iq.FU_type_0::MemRead              4656101     39.82%     84.74% # Type of FU issued
system.cpu.iq.FU_type_0::MemWrite             1784857     15.26%    100.00% # Type of FU issued
system.cpu.iq.FU_type_0::FloatMemRead               0      0.00%    100.00% # Type of FU issued
system.cpu.iq.FU_type_0::FloatMemWrite              0      0.00%    100.00% # Type of FU issued
system.cpu.iq.FU_type_0::IprAccess                  0      0.00%    100.00% # Type of FU issued
system.cpu.iq.FU_type_0::InstPrefetch               0      0.00%    100.00% # Type of FU issued
system.cpu.iq.FU_type_0::total               11693596                       # Type of FU issued
system.cpu.iq.fp_alu_accesses                       0                       # Number of floating point alu accesses
system.cpu.iq.fp_inst_queue_reads                   0                       # Number of floating instruction queue reads
system.cpu.iq.fp_inst_queue_wakeup_accesses            0                       # Number of floating instruction queue wakeup accesses
system.cpu.iq.fp_inst_queue_writes                  0                       # Number of floating instruction queue writes
system.cpu.iq.fu_busy_cnt                      148403                       # FU busy when requested
system.cpu.iq.fu_busy_rate                   0.012691                       # FU busy rate (busy events/executed inst)
system.cpu.iq.fu_full::No_OpClass                   0      0.00%      0.00% # attempts to use FU when none available
system.cpu.iq.fu_full::IntAlu                   17864     12.04%     12.04% # attempts to use FU when none available
system.cpu.iq.fu_full::IntMult                      0      0.00%     12.04% # attempts to use FU when none available
system.cpu.iq.fu_full::IntDiv                       0      0.00%     12.04% # attempts to use FU when none available
system.cpu.iq.fu_full::FloatAdd                     0      0.00%     12.04% # attempts to use FU when none available
system.cpu.iq.fu_full::FloatCmp                     0      0.00%     12.04% # attempts to use FU when none available
system.cpu.iq.fu_full::FloatCvt                     0      0.00%     12.04% # attempts to use FU when none available
system.cpu.iq.fu_full::FloatMult                    0      0.00%     12.04% # attempts to use FU when none available
system.cpu.iq.fu_full::FloatMultAcc                 0      0.00%     12.04% # attempts to use FU when none available
system.cpu.iq.fu_full::FloatDiv                     0      0.00%     12.04% # attempts to use FU when none available
system.cpu.iq.fu_full::FloatMisc                    0      0.00%     12.04% # attempts to use FU when none available
system.cpu.iq.fu_full::FloatSqrt                    0      0.00%     12.04% # attempts to use FU when none available
system.cpu.iq.fu_full::SimdAdd                      0      0.00%     12.04% # attempts to use FU when none available
system.cpu.iq.fu_full::SimdAddAcc                   0      0.00%     12.04% # attempts to use FU when none available
system.cpu.iq.fu_full::SimdAlu                      2      0.00%     12.04% # attempts to use FU when none available
system.cpu.iq.fu_full::SimdCmp                      3      0.00%     12.04% # attempts to use FU when none available
system.cpu.iq.fu_full::SimdCvt                      0      0.00%     12.04% # attempts to use FU when none available
system.cpu.iq.fu_full::SimdMisc                     0      0.00%     12.04% # attempts to use FU when none available
system.cpu.iq.fu_full::SimdMult                     0      0.00%     12.04% # attempts to use FU when none available
system.cpu.iq.fu_full::SimdMultAcc                  0      0.00%     12.04% # attempts to use FU when none available
system.cpu.iq.fu_full::SimdShift                    0      0.00%     12.04% # attempts to use FU when none available
system.cpu.iq.fu_full::SimdShiftAcc                 0      0.00%     12.04% # attempts to use FU when none available
system.cpu.iq.fu_full::SimdDiv                      0      0.00%     12.04% # attempts to use FU when none available
system.cpu.iq.fu_full::SimdSqrt                     0      0.00%     12.04% # attempts to use FU when none available
system.cpu.iq.fu_full::SimdFloatAdd                 0      0.00%     12.04% # attempts to use FU when none available
system.cpu.iq.fu_full::SimdFloatAlu                 0      0.00%     12.04% # attempts to use FU when none available
system.cpu.iq.fu_full::SimdFloatCmp                 0      0.00%     12.04% # attempts to use FU when none available
system.cpu.iq.fu_full::SimdFloatCvt                 0      0.00%     12.04% # attempts to use FU when none available
system.cpu.iq.fu_full::SimdFloatDiv                 0      0.00%     12.04% # attempts to use FU when none available
system.cpu.iq.fu_full::SimdFloatMisc                0      0.00%     12.04% # attempts to use FU when none available
system.cpu.iq.fu_full::SimdFloatMult                0      0.00%     12.04% # attempts to use FU when none available
system.cpu.iq.fu_full::SimdFloatMultAcc             0      0.00%     12.04% # attempts to use FU when none available
system.cpu.iq.fu_full::SimdFloatSqrt                0      0.00%     12.04% # attempts to use FU when none available
system.cpu.iq.fu_full::SimdReduceAdd                0      0.00%     12.04% # attempts to use FU when none available
system.cpu.iq.fu_full::SimdReduceAlu                0      0.00%     12.04% # attempts to use FU when none available
system.cpu.iq.fu_full::SimdReduceCmp                0      0.00%     12.04% # attempts to use FU when none available
system.cpu.iq.fu_full::SimdFloatReduceAdd            0      0.00%     12.04% # attempts to use FU when none available
system.cpu.iq.fu_full::SimdFloatReduceCmp            0      0.00%     12.04% # attempts to use FU when none available
system.cpu.iq.fu_full::SimdAes                      0      0.00%     12.04% # attempts to use FU when none available
system.cpu.iq.fu_full::SimdAesMix                   0      0.00%     12.04% # attempts to use FU when none available
system.cpu.iq.fu_full::SimdSha1Hash                 0      0.00%     12.04% # attempts to use FU when none available
system.cpu.iq.fu_full::SimdSha1Hash2                0      0.00%     12.04% # attempts to use FU when none available
system.cpu.iq.fu_full::SimdSha256Hash               0      0.00%     12.04% # attempts to use FU when none available
system.cpu.iq.fu_full::SimdSha256Hash2              0      0.00%     12.04% # attempts to use FU when none available
system.cpu.iq.fu_full::SimdShaSigma2                0      0.00%     12.04% # attempts to use FU when none available
system.cpu.iq.fu_full::SimdShaSigma3                0      0.00%     12.04% # attempts to use FU when none available
system.cpu.iq.fu_full::SimdPredAlu                  0      0.00%     12.04% # attempts to use FU when none available
system.cpu.iq.fu_full::MemRead                 123574     83.27%     95.31% # attempts to use FU when none available
system.cpu.iq.fu_full::MemWrite                  6960      4.69%    100.00% # attempts to use FU when none available
system.cpu.iq.fu_full::FloatMemRead                 0      0.00%    100.00% # attempts to use FU when none available
system.cpu.iq.fu_full::FloatMemWrite                0      0.00%    100.00% # attempts to use FU when none available
system.cpu.iq.fu_full::IprAccess                    0      0.00%    100.00% # attempts to use FU when none available
system.cpu.iq.fu_full::InstPrefetch                 0      0.00%    100.00% # attempts to use FU when none available
system.cpu.iq.int_alu_accesses               11841695                       # Number of integer alu accesses
system.cpu.iq.int_inst_queue_reads           28434774                       # Number of integer instruction queue reads
system.cpu.iq.int_inst_queue_wakeup_accesses     10997143                       # Number of integer instruction queue wakeup accesses
system.cpu.iq.int_inst_queue_writes          12132794                       # Number of integer instruction queue writes
system.cpu.iq.iqInstsAdded                   11323238                       # Number of instructions added to the IQ (excludes non-spec)
system.cpu.iq.iqInstsIssued                  11693596                       # Number of instructions issued
system.cpu.iq.iqNonSpecInstsAdded                  78                       # Number of non-speculative instructions added to the IQ
system.cpu.iq.iqSquashedInstsExamined          809721                       # Number of squashed instructions iterated over during squash; mainly for profiling
system.cpu.iq.iqSquashedInstsIssued               359                       # Number of squashed instructions issued
system.cpu.iq.iqSquashedNonSpecRemoved             18                       # Number of squashed non-spec instructions that were removed
system.cpu.iq.iqSquashedOperandsExamined       545287                       # Number of squashed operands that are examined and possibly removed from graph
system.cpu.iq.issued_per_cycle::samples       4899423                       # Number of insts issued each cycle
system.cpu.iq.issued_per_cycle::mean         2.386729                       # Number of insts issued each cycle
system.cpu.iq.issued_per_cycle::stdev        2.044479                       # Number of insts issued each cycle
system.cpu.iq.issued_per_cycle::underflows            0      0.00%      0.00% # Number of insts issued each cycle
system.cpu.iq.issued_per_cycle::0             1116040     22.78%     22.78% # Number of insts issued each cycle
system.cpu.iq.issued_per_cycle::1              727902     14.86%     37.64% # Number of insts issued each cycle
system.cpu.iq.issued_per_cycle::2             1031294     21.05%     58.69% # Number of insts issued each cycle
system.cpu.iq.issued_per_cycle::3              704608     14.38%     73.07% # Number of insts issued each cycle
system.cpu.iq.issued_per_cycle::4              596410     12.17%     85.24% # Number of insts issued each cycle
system.cpu.iq.issued_per_cycle::5              288571      5.89%     91.13% # Number of insts issued each cycle
system.cpu.iq.issued_per_cycle::6              181403      3.70%     94.83% # Number of insts issued each cycle
system.cpu.iq.issued_per_cycle::7              153191      3.13%     97.96% # Number of insts issued each cycle
system.cpu.iq.issued_per_cycle::8              100004      2.04%    100.00% # Number of insts issued each cycle
system.cpu.iq.issued_per_cycle::overflows            0      0.00%    100.00% # Number of insts issued each cycle
system.cpu.iq.issued_per_cycle::min_value            0                       # Number of insts issued each cycle
system.cpu.iq.issued_per_cycle::max_value            8                       # Number of insts issued each cycle
system.cpu.iq.issued_per_cycle::total         4899423                       # Number of insts issued each cycle
system.cpu.iq.rate                           2.365269                       # Inst issue rate
system.cpu.iq.vec_alu_accesses                    294                       # Number of vector alu accesses
system.cpu.iq.vec_inst_queue_reads                602                       # Number of vector instruction queue reads
system.cpu.iq.vec_inst_queue_wakeup_accesses          254                       # Number of vector instruction queue wakeup accesses
system.cpu.iq.vec_inst_queue_writes               510                       # Number of vector instruction queue writes
system.cpu.itb.accesses                             0                       # DTB accesses
system.cpu.itb.align_faults                         0                       # Number of TLB faults due to alignment restrictions
system.cpu.itb.domain_faults                        0                       # Number of TLB faults due to domain restrictions
system.cpu.itb.flush_entries                        0                       # Number of entries that have been flushed from TLB
system.cpu.itb.flush_tlb                            0                       # Number of times complete TLB was flushed
system.cpu.itb.flush_tlb_asid                       0                       # Number of times TLB was flushed by ASID
system.cpu.itb.flush_tlb_mva                        0                       # Number of times TLB was flushed by MVA
system.cpu.itb.flush_tlb_mva_asid                   0                       # Number of times TLB was flushed by MVA & ASID
system.cpu.itb.hits                                 0                       # DTB hits
system.cpu.itb.inst_accesses                        0                       # ITB inst accesses
system.cpu.itb.inst_hits                            0                       # ITB inst hits
system.cpu.itb.inst_misses                          0                       # ITB inst misses
system.cpu.itb.misses                               0                       # DTB misses
system.cpu.itb.perms_faults                         0                       # Number of TLB faults due to permissions restrictions
system.cpu.itb.prefetch_faults                      0                       # Number of TLB faults due to prefetch
system.cpu.itb.read_accesses                        0                       # DTB read accesses
system.cpu.itb.read_hits                            0                       # DTB read hits
system.cpu.itb.read_misses                          0                       # DTB read misses
system.cpu.itb.stage2_mmu.stage2_tlb.accesses            0                       # DTB accesses
system.cpu.itb.stage2_mmu.stage2_tlb.align_faults            0                       # Number of TLB faults due to alignment restrictions
system.cpu.itb.stage2_mmu.stage2_tlb.domain_faults            0                       # Number of TLB faults due to domain restrictions
system.cpu.itb.stage2_mmu.stage2_tlb.flush_entries            0                       # Number of entries that have been flushed from TLB
system.cpu.itb.stage2_mmu.stage2_tlb.flush_tlb            0                       # Number of times complete TLB was flushed
system.cpu.itb.stage2_mmu.stage2_tlb.flush_tlb_asid            0                       # Number of times TLB was flushed by ASID
system.cpu.itb.stage2_mmu.stage2_tlb.flush_tlb_mva            0                       # Number of times TLB was flushed by MVA
system.cpu.itb.stage2_mmu.stage2_tlb.flush_tlb_mva_asid            0                       # Number of times TLB was flushed by MVA & ASID
system.cpu.itb.stage2_mmu.stage2_tlb.hits            0                       # DTB hits
system.cpu.itb.stage2_mmu.stage2_tlb.inst_accesses            0                       # ITB inst accesses
system.cpu.itb.stage2_mmu.stage2_tlb.inst_hits            0                       # ITB inst hits
system.cpu.itb.stage2_mmu.stage2_tlb.inst_misses            0                       # ITB inst misses
system.cpu.itb.stage2_mmu.stage2_tlb.misses            0                       # DTB misses
system.cpu.itb.stage2_mmu.stage2_tlb.perms_faults            0                       # Number of TLB faults due to permissions restrictions
system.cpu.itb.stage2_mmu.stage2_tlb.prefetch_faults            0                       # Number of TLB faults due to prefetch
system.cpu.itb.stage2_mmu.stage2_tlb.read_accesses            0                       # DTB read accesses
system.cpu.itb.stage2_mmu.stage2_tlb.read_hits            0                       # DTB read hits
system.cpu.itb.stage2_mmu.stage2_tlb.read_misses            0                       # DTB read misses
system.cpu.itb.stage2_mmu.stage2_tlb.walker.walkRequestOrigin_Requested::Data            0                       # Table walker requests started/completed, data/inst
system.cpu.itb.stage2_mmu.stage2_tlb.walker.walkRequestOrigin_Requested::Inst            0                       # Table walker requests started/completed, data/inst
system.cpu.itb.stage2_mmu.stage2_tlb.walker.walkRequestOrigin_Requested::total            0                       # Table walker requests started/completed, data/inst
system.cpu.itb.stage2_mmu.stage2_tlb.walker.walkRequestOrigin_Completed::Data            0                       # Table walker requests started/completed, data/inst
system.cpu.itb.stage2_mmu.stage2_tlb.walker.walkRequestOrigin_Completed::Inst            0                       # Table walker requests started/completed, data/inst
system.cpu.itb.stage2_mmu.stage2_tlb.walker.walkRequestOrigin_Completed::total            0                       # Table walker requests started/completed, data/inst
system.cpu.itb.stage2_mmu.stage2_tlb.walker.walkRequestOrigin::total            0                       # Table walker requests started/completed, data/inst
system.cpu.itb.stage2_mmu.stage2_tlb.walker.walks            0                       # Table walker walks requested
system.cpu.itb.stage2_mmu.stage2_tlb.write_accesses            0                       # DTB write accesses
system.cpu.itb.stage2_mmu.stage2_tlb.write_hits            0                       # DTB write hits
system.cpu.itb.stage2_mmu.stage2_tlb.write_misses            0                       # DTB write misses
system.cpu.itb.walker.walkRequestOrigin_Requested::Data            0                       # Table walker requests started/completed, data/inst
system.cpu.itb.walker.walkRequestOrigin_Requested::Inst            0                       # Table walker requests started/completed, data/inst
system.cpu.itb.walker.walkRequestOrigin_Requested::total            0                       # Table walker requests started/completed, data/inst
system.cpu.itb.walker.walkRequestOrigin_Completed::Data            0                       # Table walker requests started/completed, data/inst
system.cpu.itb.walker.walkRequestOrigin_Completed::Inst            0                       # Table walker requests started/completed, data/inst
system.cpu.itb.walker.walkRequestOrigin_Completed::total            0                       # Table walker requests started/completed, data/inst
system.cpu.itb.walker.walkRequestOrigin::total            0                       # Table walker requests started/completed, data/inst
system.cpu.itb.walker.walks                         0                       # Table walker walks requested
system.cpu.itb.write_accesses                       0                       # DTB write accesses
system.cpu.itb.write_hits                           0                       # DTB write hits
system.cpu.itb.write_misses                         0                       # DTB write misses
system.cpu.memDep0.conflictingLoads           1039031                       # Number of conflicting loads.
system.cpu.memDep0.conflictingStores           411135                       # Number of conflicting stores.
system.cpu.memDep0.insertedLoads              4108998                       # Number of loads inserted to the mem dependence unit.
system.cpu.memDep0.insertedStores             1844182                       # Number of stores inserted to the mem dependence unit.
system.cpu.misc_regfile_reads                 9605064                       # number of misc regfile reads
system.cpu.misc_regfile_writes                    145                       # number of misc regfile writes
system.cpu.numCycles                          4943876                       # number of cpu cycles simulated
system.cpu.numWorkItemsCompleted                    0                       # number of work items this cpu completed
system.cpu.numWorkItemsStarted                      0                       # number of work items this cpu started
system.cpu.rename.BlockCycles                  256825                       # Number of cycles rename is blocking
system.cpu.rename.CommittedMaps               9915304                       # Number of HB maps that are committed
system.cpu.rename.IQFullEvents                  29643                       # Number of times rename has blocked due to IQ full
system.cpu.rename.IdleCycles                  1344650                       # Number of cycles rename is idle
system.cpu.rename.LQFullEvents                 612183                       # Number of times rename has blocked due to LQ full
system.cpu.rename.ROBFullEvents                  1446                       # Number of times rename has blocked due to ROB full
system.cpu.rename.RenameLookups              15958481                       # Number of register rename lookups that rename has made
system.cpu.rename.RenamedInsts               11438519                       # Number of instructions processed by rename
system.cpu.rename.RenamedOperands            10792334                       # Number of destination operands rename has renamed
system.cpu.rename.RunCycles                   2054813                       # Number of cycles rename is running
system.cpu.rename.SQFullEvents                 477605                       # Number of times rename has blocked due to SQ full
system.cpu.rename.SquashCycles                  20948                       # Number of cycles rename is squashing
system.cpu.rename.UnblockCycles               1213397                       # Number of cycles rename is unblocking
system.cpu.rename.UndoneMaps                   876976                       # Number of HB maps that are undone due to squashing
system.cpu.rename.int_rename_lookups         13432770                       # Number of integer rename lookups
system.cpu.rename.serializeStallCycles           8790                       # count of cycles rename stalled for serializing inst
system.cpu.rename.serializingInsts                189                       # count of serializing insts renamed
system.cpu.rename.skidInsts                   1708267                       # count of insts added to the skid buffer
system.cpu.rename.tempSerializingInsts             79                       # count of temporary serializing insts renamed
system.cpu.rename.vec_rename_lookups              502                       # Number of vector rename lookups
system.cpu.rob.rob_reads                     15203274                       # The number of ROB reads
system.cpu.rob.rob_writes                    22771702                       # The number of ROB writes
system.cpu.timesIdled                             623                       # Number of times that the entire CPU went into an idle state and unscheduled itself
system.cpu.vec_regfile_reads                      336                       # number of vector regfile reads
system.cpu.vec_regfile_writes                     167                       # number of vector regfile writes
system.cpu.workload.numSyscalls                    23                       # Number of system calls
system.membus.snoop_filter.hit_multi_requests            0                       # Number of requests hitting in the snoop filter with multiple (>1) holders of the requested data.
system.membus.snoop_filter.hit_multi_snoops            0                       # Number of snoops hitting in the snoop filter with multiple (>1) holders of the requested data.
system.membus.snoop_filter.hit_single_requests         1531                       # Number of requests hitting in the snoop filter with a single holder of the requested data.
system.membus.snoop_filter.hit_single_snoops            0                       # Number of snoops hitting in the snoop filter with a single holder of the requested data.
system.membus.snoop_filter.tot_requests         12707                       # Total number of requests made to the snoop filter.
system.membus.snoop_filter.tot_snoops               0                       # Total number of snoops made to the snoop filter.
system.tol2bus.snoop_filter.hit_multi_requests            1                       # Number of requests hitting in the snoop filter with multiple (>1) holders of the requested data.
system.tol2bus.snoop_filter.hit_multi_snoops            0                       # Number of snoops hitting in the snoop filter with multiple (>1) holders of the requested data.
system.tol2bus.snoop_filter.hit_single_requests        10821                       # Number of requests hitting in the snoop filter with a single holder of the requested data.
system.tol2bus.snoop_filter.hit_single_snoops            4                       # Number of snoops hitting in the snoop filter with a single holder of the requested data.
system.tol2bus.snoop_filter.tot_requests        22730                       # Total number of requests made to the snoop filter.
system.tol2bus.snoop_filter.tot_snoops              4                       # Total number of snoops made to the snoop filter.
system.membus.trans_dist::ReadResp               4942                       # Transaction distribution
system.membus.trans_dist::WritebackDirty         1511                       # Transaction distribution
system.membus.trans_dist::CleanEvict               20                       # Transaction distribution
system.membus.trans_dist::ReadExReq              6227                       # Transaction distribution
system.membus.trans_dist::ReadExResp             6227                       # Transaction distribution
system.membus.trans_dist::ReadSharedReq          4942                       # Transaction distribution
system.membus.trans_dist::InvalidateReq             7                       # Transaction distribution
system.membus.pkt_count_system.l2.mem_side::system.mem_ctrls.port        23876                       # Packet count per connected master and slave (bytes)
system.membus.pkt_count::total                  23876                       # Packet count per connected master and slave (bytes)
system.membus.pkt_size_system.l2.mem_side::system.mem_ctrls.port       811520                       # Cumulative packet size per connected master and slave (bytes)
system.membus.pkt_size::total                  811520                       # Cumulative packet size per connected master and slave (bytes)
system.membus.snoops                                0                       # Total snoops (count)
system.membus.snoopTraffic                          0                       # Total snoop traffic (bytes)
system.membus.snoop_fanout::samples             11176                       # Request fanout histogram
system.membus.snoop_fanout::mean                    0                       # Request fanout histogram
system.membus.snoop_fanout::stdev                   0                       # Request fanout histogram
system.membus.snoop_fanout::underflows              0      0.00%      0.00% # Request fanout histogram
system.membus.snoop_fanout::0                   11176    100.00%    100.00% # Request fanout histogram
system.membus.snoop_fanout::1                       0      0.00%    100.00% # Request fanout histogram
system.membus.snoop_fanout::overflows               0      0.00%    100.00% # Request fanout histogram
system.membus.snoop_fanout::min_value               0                       # Request fanout histogram
system.membus.snoop_fanout::max_value               0                       # Request fanout histogram
system.membus.snoop_fanout::total               11176                       # Request fanout histogram
system.membus.reqLayer0.occupancy            20950000                       # Layer occupancy (ticks)
system.membus.reqLayer0.utilization               0.8                       # Layer utilization (%)
system.membus.respLayer1.occupancy           58043750                       # Layer occupancy (ticks)
system.membus.respLayer1.utilization              2.3                       # Layer utilization (%)
system.membus.power_state.pwrStateResidencyTicks::UNDEFINED   2471937500                       # Cumulative time (in ticks) in various power states
system.tol2bus.trans_dist::ReadResp              5639                       # Transaction distribution
system.tol2bus.trans_dist::WritebackDirty         7300                       # Transaction distribution
system.tol2bus.trans_dist::WritebackClean          899                       # Transaction distribution
system.tol2bus.trans_dist::CleanEvict            4157                       # Transaction distribution
system.tol2bus.trans_dist::ReadExReq             6262                       # Transaction distribution
system.tol2bus.trans_dist::ReadExResp            6262                       # Transaction distribution
system.tol2bus.trans_dist::ReadCleanReq           963                       # Transaction distribution
system.tol2bus.trans_dist::ReadSharedReq         4676                       # Transaction distribution
system.tol2bus.trans_dist::InvalidateReq            8                       # Transaction distribution
system.tol2bus.trans_dist::InvalidateResp            8                       # Transaction distribution
system.tol2bus.pkt_count_system.cpu.icache.mem_side::system.l2.cpu_side         2825                       # Packet count per connected master and slave (bytes)
system.tol2bus.pkt_count_system.cpu.dcache.mem_side::system.l2.cpu_side        31814                       # Packet count per connected master and slave (bytes)
system.tol2bus.pkt_count::total                 34639                       # Packet count per connected master and slave (bytes)
system.tol2bus.pkt_size_system.cpu.icache.mem_side::system.l2.cpu_side       119168                       # Cumulative packet size per connected master and slave (bytes)
system.tol2bus.pkt_size_system.cpu.dcache.mem_side::system.l2.cpu_side      1070528                       # Cumulative packet size per connected master and slave (bytes)
system.tol2bus.pkt_size::total                1189696                       # Cumulative packet size per connected master and slave (bytes)
system.tol2bus.snoops                            1535                       # Total snoops (count)
system.tol2bus.snoopTraffic                     96704                       # Total snoop traffic (bytes)
system.tol2bus.snoop_fanout::samples            13444                       # Request fanout histogram
system.tol2bus.snoop_fanout::mean            0.000372                       # Request fanout histogram
system.tol2bus.snoop_fanout::stdev           0.019282                       # Request fanout histogram
system.tol2bus.snoop_fanout::underflows             0      0.00%      0.00% # Request fanout histogram
system.tol2bus.snoop_fanout::0                  13439     99.96%     99.96% # Request fanout histogram
system.tol2bus.snoop_fanout::1                      5      0.04%    100.00% # Request fanout histogram
system.tol2bus.snoop_fanout::2                      0      0.00%    100.00% # Request fanout histogram
system.tol2bus.snoop_fanout::overflows              0      0.00%    100.00% # Request fanout histogram
system.tol2bus.snoop_fanout::min_value              0                       # Request fanout histogram
system.tol2bus.snoop_fanout::max_value              1                       # Request fanout histogram
system.tol2bus.snoop_fanout::total              13444                       # Request fanout histogram
system.tol2bus.reqLayer0.occupancy           18053000                       # Layer occupancy (ticks)
system.tol2bus.reqLayer0.utilization              0.7                       # Layer utilization (%)
system.tol2bus.respLayer1.occupancy          16411499                       # Layer occupancy (ticks)
system.tol2bus.respLayer1.utilization             0.7                       # Layer utilization (%)
system.tol2bus.respLayer0.occupancy           1445498                       # Layer occupancy (ticks)
system.tol2bus.respLayer0.utilization             0.1                       # Layer utilization (%)
system.tol2bus.power_state.pwrStateResidencyTicks::UNDEFINED   2471937500                       # Cumulative time (in ticks) in various power states
system.voltage_domain.voltage                       1                       # Voltage in Volts
system.clk_domain.clock                          1000                       # Clock period in ticks
system.l2.demand_hits::.cpu.inst                  459                       # number of demand (read+write) hits
system.l2.demand_hits::.cpu.data                  273                       # number of demand (read+write) hits
system.l2.demand_hits::total                      732                       # number of demand (read+write) hits
system.l2.overall_hits::.cpu.inst                 459                       # number of overall hits
system.l2.overall_hits::.cpu.data                 273                       # number of overall hits
system.l2.overall_hits::total                     732                       # number of overall hits
system.l2.demand_misses::.cpu.inst                504                       # number of demand (read+write) misses
system.l2.demand_misses::.cpu.data              10665                       # number of demand (read+write) misses
system.l2.demand_misses::total                  11169                       # number of demand (read+write) misses
system.l2.overall_misses::.cpu.inst               504                       # number of overall misses
system.l2.overall_misses::.cpu.data             10665                       # number of overall misses
system.l2.overall_misses::total                 11169                       # number of overall misses
system.l2.demand_miss_latency::.cpu.inst     40693500                       # number of demand (read+write) miss cycles
system.l2.demand_miss_latency::.cpu.data    870750500                       # number of demand (read+write) miss cycles
system.l2.demand_miss_latency::total        911444000                       # number of demand (read+write) miss cycles
system.l2.overall_miss_latency::.cpu.inst     40693500                       # number of overall miss cycles
system.l2.overall_miss_latency::.cpu.data    870750500                       # number of overall miss cycles
system.l2.overall_miss_latency::total       911444000                       # number of overall miss cycles
system.l2.demand_accesses::.cpu.inst              963                       # number of demand (read+write) accesses
system.l2.demand_accesses::.cpu.data            10938                       # number of demand (read+write) accesses
system.l2.demand_accesses::total                11901                       # number of demand (read+write) accesses
system.l2.overall_accesses::.cpu.inst             963                       # number of overall (read+write) accesses
system.l2.overall_accesses::.cpu.data           10938                       # number of overall (read+write) accesses
system.l2.overall_accesses::total               11901                       # number of overall (read+write) accesses
system.l2.demand_miss_rate::.cpu.inst        0.523364                       # miss rate for demand accesses
system.l2.demand_miss_rate::.cpu.data        0.975041                       # miss rate for demand accesses
system.l2.demand_miss_rate::total            0.938493                       # miss rate for demand accesses
system.l2.overall_miss_rate::.cpu.inst       0.523364                       # miss rate for overall accesses
system.l2.overall_miss_rate::.cpu.data       0.975041                       # miss rate for overall accesses
system.l2.overall_miss_rate::total           0.938493                       # miss rate for overall accesses
system.l2.demand_avg_miss_latency::.cpu.inst 80741.071429                       # average overall miss latency
system.l2.demand_avg_miss_latency::.cpu.data 81645.616503                       # average overall miss latency
system.l2.demand_avg_miss_latency::total 81604.798997                       # average overall miss latency
system.l2.overall_avg_miss_latency::.cpu.inst 80741.071429                       # average overall miss latency
system.l2.overall_avg_miss_latency::.cpu.data 81645.616503                       # average overall miss latency
system.l2.overall_avg_miss_latency::total 81604.798997                       # average overall miss latency
system.l2.blocked_cycles::no_mshrs                  0                       # number of cycles access was blocked
system.l2.blocked_cycles::no_targets                0                       # number of cycles access was blocked
system.l2.blocked::no_mshrs                         0                       # number of cycles access was blocked
system.l2.blocked::no_targets                       0                       # number of cycles access was blocked
system.l2.avg_blocked_cycles::no_mshrs            nan                       # average number of cycles each access was blocked
system.l2.avg_blocked_cycles::no_targets          nan                       # average number of cycles each access was blocked
system.l2.writebacks::.writebacks                1511                       # number of writebacks
system.l2.writebacks::total                      1511                       # number of writebacks
system.l2.demand_mshr_misses::.cpu.inst           504                       # number of demand (read+write) MSHR misses
system.l2.demand_mshr_misses::.cpu.data         10665                       # number of demand (read+write) MSHR misses
system.l2.demand_mshr_misses::total             11169                       # number of demand (read+write) MSHR misses
system.l2.overall_mshr_misses::.cpu.inst          504                       # number of overall MSHR misses
system.l2.overall_mshr_misses::.cpu.data        10665                       # number of overall MSHR misses
system.l2.overall_mshr_misses::total            11169                       # number of overall MSHR misses
system.l2.demand_mshr_miss_latency::.cpu.inst     35653500                       # number of demand (read+write) MSHR miss cycles
system.l2.demand_mshr_miss_latency::.cpu.data    764100500                       # number of demand (read+write) MSHR miss cycles
system.l2.demand_mshr_miss_latency::total    799754000                       # number of demand (read+write) MSHR miss cycles
system.l2.overall_mshr_miss_latency::.cpu.inst     35653500                       # number of overall MSHR miss cycles
system.l2.overall_mshr_miss_latency::.cpu.data    764100500                       # number of overall MSHR miss cycles
system.l2.overall_mshr_miss_latency::total    799754000                       # number of overall MSHR miss cycles
system.l2.demand_mshr_miss_rate::.cpu.inst     0.523364                       # mshr miss rate for demand accesses
system.l2.demand_mshr_miss_rate::.cpu.data     0.975041                       # mshr miss rate for demand accesses
system.l2.demand_mshr_miss_rate::total       0.938493                       # mshr miss rate for demand accesses
system.l2.overall_mshr_miss_rate::.cpu.inst     0.523364                       # mshr miss rate for overall accesses
system.l2.overall_mshr_miss_rate::.cpu.data     0.975041                       # mshr miss rate for overall accesses
system.l2.overall_mshr_miss_rate::total      0.938493                       # mshr miss rate for overall accesses
system.l2.demand_avg_mshr_miss_latency::.cpu.inst 70741.071429                       # average overall mshr miss latency
system.l2.demand_avg_mshr_miss_latency::.cpu.data 71645.616503                       # average overall mshr miss latency
system.l2.demand_avg_mshr_miss_latency::total 71604.798997                       # average overall mshr miss latency
system.l2.overall_avg_mshr_miss_latency::.cpu.inst 70741.071429                       # average overall mshr miss latency
system.l2.overall_avg_mshr_miss_latency::.cpu.data 71645.616503                       # average overall mshr miss latency
system.l2.overall_avg_mshr_miss_latency::total 71604.798997                       # average overall mshr miss latency
system.l2.replacements                           1535                       # number of replacements
system.l2.WritebackDirty_hits::.writebacks         5789                       # number of WritebackDirty hits
system.l2.WritebackDirty_hits::total             5789                       # number of WritebackDirty hits
system.l2.WritebackDirty_accesses::.writebacks         5789                       # number of WritebackDirty accesses(hits+misses)
system.l2.WritebackDirty_accesses::total         5789                       # number of WritebackDirty accesses(hits+misses)
system.l2.WritebackClean_hits::.writebacks          898                       # number of WritebackClean hits
system.l2.WritebackClean_hits::total              898                       # number of WritebackClean hits
system.l2.WritebackClean_accesses::.writebacks          898                       # number of WritebackClean accesses(hits+misses)
system.l2.WritebackClean_accesses::total          898                       # number of WritebackClean accesses(hits+misses)
system.l2.ReadExReq_hits::.cpu.data                35                       # number of ReadExReq hits
system.l2.ReadExReq_hits::total                    35                       # number of ReadExReq hits
system.l2.ReadExReq_misses::.cpu.data            6227                       # number of ReadExReq misses
system.l2.ReadExReq_misses::total                6227                       # number of ReadExReq misses
system.l2.ReadExReq_miss_latency::.cpu.data    528046000                       # number of ReadExReq miss cycles
system.l2.ReadExReq_miss_latency::total     528046000                       # number of ReadExReq miss cycles
system.l2.ReadExReq_accesses::.cpu.data          6262                       # number of ReadExReq accesses(hits+misses)
system.l2.ReadExReq_accesses::total              6262                       # number of ReadExReq accesses(hits+misses)
system.l2.ReadExReq_miss_rate::.cpu.data     0.994411                       # miss rate for ReadExReq accesses
system.l2.ReadExReq_miss_rate::total         0.994411                       # miss rate for ReadExReq accesses
system.l2.ReadExReq_avg_miss_latency::.cpu.data 84799.421872                       # average ReadExReq miss latency
system.l2.ReadExReq_avg_miss_latency::total 84799.421872                       # average ReadExReq miss latency
system.l2.ReadExReq_mshr_misses::.cpu.data         6227                       # number of ReadExReq MSHR misses
system.l2.ReadExReq_mshr_misses::total           6227                       # number of ReadExReq MSHR misses
system.l2.ReadExReq_mshr_miss_latency::.cpu.data    465776000                       # number of ReadExReq MSHR miss cycles
system.l2.ReadExReq_mshr_miss_latency::total    465776000                       # number of ReadExReq MSHR miss cycles
system.l2.ReadExReq_mshr_miss_rate::.cpu.data     0.994411                       # mshr miss rate for ReadExReq accesses
system.l2.ReadExReq_mshr_miss_rate::total     0.994411                       # mshr miss rate for ReadExReq accesses
system.l2.ReadExReq_avg_mshr_miss_latency::.cpu.data 74799.421872                       # average ReadExReq mshr miss latency
system.l2.ReadExReq_avg_mshr_miss_latency::total 74799.421872                       # average ReadExReq mshr miss latency
system.l2.ReadCleanReq_hits::.cpu.inst            459                       # number of ReadCleanReq hits
system.l2.ReadCleanReq_hits::total                459                       # number of ReadCleanReq hits
system.l2.ReadCleanReq_misses::.cpu.inst          504                       # number of ReadCleanReq misses
system.l2.ReadCleanReq_misses::total              504                       # number of ReadCleanReq misses
system.l2.ReadCleanReq_miss_latency::.cpu.inst     40693500                       # number of ReadCleanReq miss cycles
system.l2.ReadCleanReq_miss_latency::total     40693500                       # number of ReadCleanReq miss cycles
system.l2.ReadCleanReq_accesses::.cpu.inst          963                       # number of ReadCleanReq accesses(hits+misses)
system.l2.ReadCleanReq_accesses::total            963                       # number of ReadCleanReq accesses(hits+misses)
system.l2.ReadCleanReq_miss_rate::.cpu.inst     0.523364                       # miss rate for ReadCleanReq accesses
system.l2.ReadCleanReq_miss_rate::total      0.523364                       # miss rate for ReadCleanReq accesses
system.l2.ReadCleanReq_avg_miss_latency::.cpu.inst 80741.071429                       # average ReadCleanReq miss latency
system.l2.ReadCleanReq_avg_miss_latency::total 80741.071429                       # average ReadCleanReq miss latency
system.l2.ReadCleanReq_mshr_misses::.cpu.inst          504                       # number of ReadCleanReq MSHR misses
system.l2.ReadCleanReq_mshr_misses::total          504                       # number of ReadCleanReq MSHR misses
system.l2.ReadCleanReq_mshr_miss_latency::.cpu.inst     35653500                       # number of ReadCleanReq MSHR miss cycles
system.l2.ReadCleanReq_mshr_miss_latency::total     35653500                       # number of ReadCleanReq MSHR miss cycles
system.l2.ReadCleanReq_mshr_miss_rate::.cpu.inst     0.523364                       # mshr miss rate for ReadCleanReq accesses
[...]
system.cpu.dcache.overall_hits::.cpu.data      4512027                       # number of overall hits
system.cpu.dcache.overall_hits::total         4512027                       # number of overall hits
system.cpu.dcache.demand_misses::.cpu.data        35634                       # number of demand (read+write) misses
system.cpu.dcache.demand_misses::total          35634                       # number of demand (read+write) misses
system.cpu.dcache.overall_misses::.cpu.data        35637                       # number of overall misses
system.cpu.dcache.overall_misses::total         35637                       # number of overall misses
system.cpu.dcache.demand_miss_latency::.cpu.data   2341800819                       # number of demand (read+write) miss cycles
system.cpu.dcache.demand_miss_latency::total   2341800819                       # number of demand (read+write) miss cycles
system.cpu.dcache.overall_miss_latency::.cpu.data   2341800819                       # number of overall miss cycles
system.cpu.dcache.overall_miss_latency::total   2341800819                       # number of overall miss cycles
system.cpu.dcache.demand_accesses::.cpu.data      4547605                       # number of demand (read+write) accesses
system.cpu.dcache.demand_accesses::total      4547605                       # number of demand (read+write) accesses
system.cpu.dcache.overall_accesses::.cpu.data      4547664                       # number of overall (read+write) accesses
system.cpu.dcache.overall_accesses::total      4547664                       # number of overall (read+write) accesses
system.cpu.dcache.demand_miss_rate::.cpu.data     0.007836                       # miss rate for demand accesses
system.cpu.dcache.demand_miss_rate::total     0.007836                       # miss rate for demand accesses
system.cpu.dcache.overall_miss_rate::.cpu.data     0.007836                       # miss rate for overall accesses
system.cpu.dcache.overall_miss_rate::total     0.007836                       # miss rate for overall accesses
system.cpu.dcache.demand_avg_miss_latency::.cpu.data 65718.157350                       # average overall miss latency
system.cpu.dcache.demand_avg_miss_latency::total 65718.157350                       # average overall miss latency
system.cpu.dcache.overall_avg_miss_latency::.cpu.data 65712.625053                       # average overall miss latency
system.cpu.dcache.overall_avg_miss_latency::total 65712.625053                       # average overall miss latency
system.cpu.dcache.blocked_cycles::no_mshrs       281899                       # number of cycles access was blocked
system.cpu.dcache.blocked_cycles::no_targets          380                       # number of cycles access was blocked
system.cpu.dcache.blocked::no_mshrs              4428                       # number of cycles access was blocked
system.cpu.dcache.blocked::no_targets               4                       # number of cycles access was blocked
system.cpu.dcache.avg_blocked_cycles::no_mshrs    63.662827                       # average number of cycles each access was blocked
system.cpu.dcache.avg_blocked_cycles::no_targets           95                       # average number of cycles each access was blocked
system.cpu.dcache.writebacks::.writebacks         5789                       # number of writebacks
system.cpu.dcache.writebacks::total              5789                       # number of writebacks
system.cpu.dcache.demand_mshr_hits::.cpu.data        24691                       # number of demand (read+write) MSHR hits
system.cpu.dcache.demand_mshr_hits::total        24691                       # number of demand (read+write) MSHR hits
system.cpu.dcache.overall_mshr_hits::.cpu.data        24691                       # number of overall MSHR hits
system.cpu.dcache.overall_mshr_hits::total        24691                       # number of overall MSHR hits
system.cpu.dcache.demand_mshr_misses::.cpu.data        10943                       # number of demand (read+write) MSHR misses
system.cpu.dcache.demand_mshr_misses::total        10943                       # number of demand (read+write) MSHR misses
system.cpu.dcache.overall_mshr_misses::.cpu.data        10946                       # number of overall MSHR misses
system.cpu.dcache.overall_mshr_misses::total        10946                       # number of overall MSHR misses
system.cpu.dcache.demand_mshr_miss_latency::.cpu.data    890276474                       # number of demand (read+write) MSHR miss cycles
system.cpu.dcache.demand_mshr_miss_latency::total    890276474                       # number of demand (read+write) MSHR miss cycles
system.cpu.dcache.overall_mshr_miss_latency::.cpu.data    890599474                       # number of overall MSHR miss cycles
system.cpu.dcache.overall_mshr_miss_latency::total    890599474                       # number of overall MSHR miss cycles
system.cpu.dcache.demand_mshr_miss_rate::.cpu.data     0.002406                       # mshr miss rate for demand accesses
system.cpu.dcache.demand_mshr_miss_rate::total     0.002406                       # mshr miss rate for demand accesses
system.cpu.dcache.overall_mshr_miss_rate::.cpu.data     0.002407                       # mshr miss rate for overall accesses
system.cpu.dcache.overall_mshr_miss_rate::total     0.002407                       # mshr miss rate for overall accesses
system.cpu.dcache.demand_avg_mshr_miss_latency::.cpu.data 81355.795851                       # average overall mshr miss latency
system.cpu.dcache.demand_avg_mshr_miss_latency::total 81355.795851                       # average overall mshr miss latency
system.cpu.dcache.overall_avg_mshr_miss_latency::.cpu.data 81363.006943                       # average overall mshr miss latency
system.cpu.dcache.overall_avg_mshr_miss_latency::total 81363.006943                       # average overall mshr miss latency
system.cpu.dcache.replacements                   9922                       # number of replacements
system.cpu.dcache.ReadReq_hits::.cpu.data      2838367                       # number of ReadReq hits
system.cpu.dcache.ReadReq_hits::total         2838367                       # number of ReadReq hits
system.cpu.dcache.ReadReq_misses::.cpu.data        16678                       # number of ReadReq misses
system.cpu.dcache.ReadReq_misses::total         16678                       # number of ReadReq misses
system.cpu.dcache.ReadReq_miss_latency::.cpu.data   1059209000                       # number of ReadReq miss cycles
system.cpu.dcache.ReadReq_miss_latency::total   1059209000                       # number of ReadReq miss cycles
system.cpu.dcache.ReadReq_accesses::.cpu.data      2855045                       # number of ReadReq accesses(hits+misses)
system.cpu.dcache.ReadReq_accesses::total      2855045                       # number of ReadReq accesses(hits+misses)
system.cpu.dcache.ReadReq_miss_rate::.cpu.data     0.005842                       # miss rate for ReadReq accesses
system.cpu.dcache.ReadReq_miss_rate::total     0.005842                       # miss rate for ReadReq accesses
system.cpu.dcache.ReadReq_avg_miss_latency::.cpu.data 63509.353640                       # average ReadReq miss latency
system.cpu.dcache.ReadReq_avg_miss_latency::total 63509.353640                       # average ReadReq miss latency
system.cpu.dcache.ReadReq_mshr_hits::.cpu.data        12005                       # number of ReadReq MSHR hits
system.cpu.dcache.ReadReq_mshr_hits::total        12005                       # number of ReadReq MSHR hits
system.cpu.dcache.ReadReq_mshr_misses::.cpu.data         4673                       # number of ReadReq MSHR misses
system.cpu.dcache.ReadReq_mshr_misses::total         4673                       # number of ReadReq MSHR misses
system.cpu.dcache.ReadReq_mshr_miss_latency::.cpu.data    352200000                       # number of ReadReq MSHR miss cycles
system.cpu.dcache.ReadReq_mshr_miss_latency::total    352200000                       # number of ReadReq MSHR miss cycles
system.cpu.dcache.ReadReq_mshr_miss_rate::.cpu.data     0.001637                       # mshr miss rate for ReadReq accesses
system.cpu.dcache.ReadReq_mshr_miss_rate::total     0.001637                       # mshr miss rate for ReadReq accesses
system.cpu.dcache.ReadReq_avg_mshr_miss_latency::.cpu.data 75369.141879                       # average ReadReq mshr miss latency
system.cpu.dcache.ReadReq_avg_mshr_miss_latency::total 75369.141879                       # average ReadReq mshr miss latency
system.cpu.dcache.WriteReq_hits::.cpu.data      1673604                       # number of WriteReq hits
system.cpu.dcache.WriteReq_hits::total        1673604                       # number of WriteReq hits
system.cpu.dcache.WriteReq_misses::.cpu.data        18949                       # number of WriteReq misses
system.cpu.dcache.WriteReq_misses::total        18949                       # number of WriteReq misses
system.cpu.dcache.WriteReq_miss_latency::.cpu.data   1282368821                       # number of WriteReq miss cycles
system.cpu.dcache.WriteReq_miss_latency::total   1282368821                       # number of WriteReq miss cycles
system.cpu.dcache.WriteReq_accesses::.cpu.data      1692553                       # number of WriteReq accesses(hits+misses)
system.cpu.dcache.WriteReq_accesses::total      1692553                       # number of WriteReq accesses(hits+misses)
system.cpu.dcache.WriteReq_miss_rate::.cpu.data     0.011196                       # miss rate for WriteReq accesses
system.cpu.dcache.WriteReq_miss_rate::total     0.011196                       # miss rate for WriteReq accesses
system.cpu.dcache.WriteReq_avg_miss_latency::.cpu.data 67674.749116                       # average WriteReq miss latency
system.cpu.dcache.WriteReq_avg_miss_latency::total 67674.749116                       # average WriteReq miss latency
system.cpu.dcache.WriteReq_mshr_hits::.cpu.data        12686                       # number of WriteReq MSHR hits
system.cpu.dcache.WriteReq_mshr_hits::total        12686                       # number of WriteReq MSHR hits
system.cpu.dcache.WriteReq_mshr_misses::.cpu.data         6263                       # number of WriteReq MSHR misses
system.cpu.dcache.WriteReq_mshr_misses::total         6263                       # number of WriteReq MSHR misses
system.cpu.dcache.WriteReq_mshr_miss_latency::.cpu.data    537860476                       # number of WriteReq MSHR miss cycles
system.cpu.dcache.WriteReq_mshr_miss_latency::total    537860476                       # number of WriteReq MSHR miss cycles
system.cpu.dcache.WriteReq_mshr_miss_rate::.cpu.data     0.003700                       # mshr miss rate for WriteReq accesses
system.cpu.dcache.WriteReq_mshr_miss_rate::total     0.003700                       # mshr miss rate for WriteReq accesses
system.cpu.dcache.WriteReq_avg_mshr_miss_latency::.cpu.data 85879.047741                       # average WriteReq mshr miss latency
system.cpu.dcache.WriteReq_avg_mshr_miss_latency::total 85879.047741                       # average WriteReq mshr miss latency
system.cpu.dcache.SoftPFReq_hits::.cpu.data           56                       # number of SoftPFReq hits
system.cpu.dcache.SoftPFReq_hits::total            56                       # number of SoftPFReq hits
system.cpu.dcache.SoftPFReq_misses::.cpu.data            3                       # number of SoftPFReq misses
system.cpu.dcache.SoftPFReq_misses::total            3                       # number of SoftPFReq misses
system.cpu.dcache.SoftPFReq_accesses::.cpu.data           59                       # number of SoftPFReq accesses(hits+misses)
system.cpu.dcache.SoftPFReq_accesses::total           59                       # number of SoftPFReq accesses(hits+misses)
system.cpu.dcache.SoftPFReq_miss_rate::.cpu.data     0.050847                       # miss rate for SoftPFReq accesses
system.cpu.dcache.SoftPFReq_miss_rate::total     0.050847                       # miss rate for SoftPFReq accesses
system.cpu.dcache.SoftPFReq_mshr_misses::.cpu.data            3                       # number of SoftPFReq MSHR misses
system.cpu.dcache.SoftPFReq_mshr_misses::total            3                       # number of SoftPFReq MSHR misses
system.cpu.dcache.SoftPFReq_mshr_miss_latency::.cpu.data       323000                       # number of SoftPFReq MSHR miss cycles
system.cpu.dcache.SoftPFReq_mshr_miss_latency::total       323000                       # number of SoftPFReq MSHR miss cycles
system.cpu.dcache.SoftPFReq_mshr_miss_rate::.cpu.data     0.050847                       # mshr miss rate for SoftPFReq accesses
system.cpu.dcache.SoftPFReq_mshr_miss_rate::total     0.050847                       # mshr miss rate for SoftPFReq accesses
system.cpu.dcache.SoftPFReq_avg_mshr_miss_latency::.cpu.data 107666.666667                       # average SoftPFReq mshr miss latency
system.cpu.dcache.SoftPFReq_avg_mshr_miss_latency::total 107666.666667                       # average SoftPFReq mshr miss latency
system.cpu.dcache.WriteLineReq_misses::.cpu.data            7                       # number of WriteLineReq misses
system.cpu.dcache.WriteLineReq_misses::total            7                       # number of WriteLineReq misses
system.cpu.dcache.WriteLineReq_miss_latency::.cpu.data       222998                       # number of WriteLineReq miss cycles
system.cpu.dcache.WriteLineReq_miss_latency::total       222998                       # number of WriteLineReq miss cycles
system.cpu.dcache.WriteLineReq_accesses::.cpu.data            7                       # number of WriteLineReq accesses(hits+misses)
system.cpu.dcache.WriteLineReq_accesses::total            7                       # number of WriteLineReq accesses(hits+misses)
system.cpu.dcache.WriteLineReq_miss_rate::.cpu.data            1                       # miss rate for WriteLineReq accesses
system.cpu.dcache.WriteLineReq_miss_rate::total            1                       # miss rate for WriteLineReq accesses
system.cpu.dcache.WriteLineReq_avg_miss_latency::.cpu.data 31856.857143                       # average WriteLineReq miss latency
system.cpu.dcache.WriteLineReq_avg_miss_latency::total 31856.857143                       # average WriteLineReq miss latency
system.cpu.dcache.WriteLineReq_mshr_misses::.cpu.data            7                       # number of WriteLineReq MSHR misses
system.cpu.dcache.WriteLineReq_mshr_misses::total            7                       # number of WriteLineReq MSHR misses
system.cpu.dcache.WriteLineReq_mshr_miss_latency::.cpu.data       215998                       # number of WriteLineReq MSHR miss cycles
system.cpu.dcache.WriteLineReq_mshr_miss_latency::total       215998                       # number of WriteLineReq MSHR miss cycles
system.cpu.dcache.WriteLineReq_mshr_miss_rate::.cpu.data            1                       # mshr miss rate for WriteLineReq accesses
system.cpu.dcache.WriteLineReq_mshr_miss_rate::total            1                       # mshr miss rate for WriteLineReq accesses
system.cpu.dcache.WriteLineReq_avg_mshr_miss_latency::.cpu.data 30856.857143                       # average WriteLineReq mshr miss latency
system.cpu.dcache.WriteLineReq_avg_mshr_miss_latency::total 30856.857143                       # average WriteLineReq mshr miss latency
system.cpu.dcache.LoadLockedReq_hits::.cpu.data           44                       # number of LoadLockedReq hits
system.cpu.dcache.LoadLockedReq_hits::total           44                       # number of LoadLockedReq hits
system.cpu.dcache.LoadLockedReq_misses::.cpu.data            2                       # number of LoadLockedReq misses
system.cpu.dcache.LoadLockedReq_misses::total            2                       # number of LoadLockedReq misses
system.cpu.dcache.LoadLockedReq_miss_latency::.cpu.data        85000                       # number of LoadLockedReq miss cycles
system.cpu.dcache.LoadLockedReq_miss_latency::total        85000                       # number of LoadLockedReq miss cycles
system.cpu.dcache.LoadLockedReq_accesses::.cpu.data           46                       # number of LoadLockedReq accesses(hits+misses)
system.cpu.dcache.LoadLockedReq_accesses::total           46                       # number of LoadLockedReq accesses(hits+misses)
system.cpu.dcache.LoadLockedReq_miss_rate::.cpu.data     0.043478                       # miss rate for LoadLockedReq accesses
system.cpu.dcache.LoadLockedReq_miss_rate::total     0.043478                       # miss rate for LoadLockedReq accesses
system.cpu.dcache.LoadLockedReq_avg_miss_latency::.cpu.data        42500                       # average LoadLockedReq miss latency
system.cpu.dcache.LoadLockedReq_avg_miss_latency::total        42500                       # average LoadLockedReq miss latency
system.cpu.dcache.LoadLockedReq_mshr_hits::.cpu.data            2                       # number of LoadLockedReq MSHR hits
system.cpu.dcache.LoadLockedReq_mshr_hits::total            2                       # number of LoadLockedReq MSHR hits
system.cpu.dcache.StoreCondReq_hits::.cpu.data           36                       # number of StoreCondReq hits
system.cpu.dcache.StoreCondReq_hits::total           36                       # number of StoreCondReq hits
system.cpu.dcache.StoreCondReq_accesses::.cpu.data           36                       # number of StoreCondReq accesses(hits+misses)
system.cpu.dcache.StoreCondReq_accesses::total           36                       # number of StoreCondReq accesses(hits+misses)
system.cpu.dcache.power_state.pwrStateResidencyTicks::UNDEFINED   2471937500                       # Cumulative time (in ticks) in various power states
system.cpu.dcache.tags.tagsinuse           978.861387                       # Cycle average of tags in use
system.cpu.dcache.tags.total_refs             4523053                       # Total number of references to valid blocks.
system.cpu.dcache.tags.sampled_refs             10946                       # Sample count of references to valid blocks.
system.cpu.dcache.tags.avg_refs            413.215147                       # Average number of references to valid blocks.
system.cpu.dcache.tags.warmup_cycle            176500                       # Cycle when the warmup percentage was hit.
system.cpu.dcache.tags.occ_blocks::.cpu.data   978.861387                       # Average occupied blocks per requestor
system.cpu.dcache.tags.occ_percent::.cpu.data     0.955919                       # Average percentage of cache occupancy
system.cpu.dcache.tags.occ_percent::total     0.955919                       # Average percentage of cache occupancy
system.cpu.dcache.tags.occ_task_id_blocks::1024         1024                       # Occupied blocks per task id
system.cpu.dcache.tags.age_task_id_blocks_1024::0           92                       # Occupied blocks per task id
system.cpu.dcache.tags.age_task_id_blocks_1024::1          220                       # Occupied blocks per task id
system.cpu.dcache.tags.age_task_id_blocks_1024::2          607                       # Occupied blocks per task id
system.cpu.dcache.tags.age_task_id_blocks_1024::3          105                       # Occupied blocks per task id
system.cpu.dcache.tags.occ_task_id_percent::1024            1                       # Percentage of cache occupancy per task id
system.cpu.dcache.tags.tag_accesses           9106438                       # Number of tag accesses
system.cpu.dcache.tags.data_accesses          9106438                       # Number of data accesses
system.cpu.dcache.tags.power_state.pwrStateResidencyTicks::UNDEFINED   2471937500                       # Cumulative time (in ticks) in various power states
system.cpu.power_state.pwrStateResidencyTicks::ON   2471937500                       # Cumulative time (in ticks) in various power states

---------- End Simulation Statistics   ----------
