
---------- Begin Simulation Statistics ----------
final_tick                                 3776947500                       # Number of ticks from beginning of simulation (restored from checkpoints and never reset)
host_inst_rate                                 101093                       # Simulator instruction rate (inst/s)
host_mem_usage                                 904632                       # Number of bytes of host memory used
host_op_rate                                   114976                       # Simulator op (including micro ops) rate (op/s)
host_seconds                                    98.92                       # Real time elapsed on the host
host_tick_rate                               38182146                       # Simulator tick rate (ticks/s)
sim_freq                                 1000000000000                       # Frequency of simulated ticks
sim_insts                                    10000001                       # Number of instructions simulated
sim_ops                                      11373297                       # Number of ops (including micro ops) simulated
sim_seconds                                  0.003777                       # Number of seconds simulated
sim_ticks                                  3776947500                       # Number of ticks simulated
system.cpu.branchPred.BTBCorrect                    0                       # Number of correct BTB predictions (this stat may not work properly.
system.cpu.branchPred.BTBHitPct             98.292237                       # BTB Hit Percentage
system.cpu.branchPred.BTBHits                 1360512                       # Number of BTB hits
system.cpu.branchPred.BTBLookups              1384150                       # Number of BTB lookups
system.cpu.branchPred.RASInCorrect                 18                       # Number of incorrect RAS predictions.
system.cpu.branchPred.condIncorrect             46497                       # Number of conditional branches incorrect
system.cpu.branchPred.condPredicted           2453721                       # Number of conditional branches predicted
system.cpu.branchPred.indirectHits              28133                       # Number of indirect target hits.
system.cpu.branchPred.indirectLookups           30980                       # Number of indirect predictor lookups.
system.cpu.branchPred.indirectMisses             2847                       # Number of indirect misses.
system.cpu.branchPred.lookups                 2847420                       # Number of BP lookups
system.cpu.branchPred.usedRAS                  132935                       # Number of times the RAS was used to get a target.
system.cpu.branchPredindirectMispredicted          861                       # Number of mispredicted indirect branches.
system.cpu.cc_regfile_reads                   6034554                       # number of cc regfile reads
system.cpu.cc_regfile_writes                  6036461                       # number of cc regfile writes
system.cpu.commit.amos                              0                       # Number of atomic instructions committed
system.cpu.commit.branchMispredicts             39579                       # The number of times a branch was mispredicted
system.cpu.commit.branches                    2506891                       # Number of branches committed
system.cpu.commit.bw_lim_events                445578                       # number cycles where commit BW limit reached
system.cpu.commit.commitNonSpecStalls            5294                       # The number of times commit has been forced to stall to communicate backwards
system.cpu.commit.commitSquashedInsts          681077                       # The number of squashed insts skipped by commit
system.cpu.commit.committedInsts             10012014                       # Number of instructions committed
system.cpu.commit.committedOps               11385310                       # Number of ops (including micro ops) committed
system.cpu.commit.committed_per_cycle::samples      6714746                       # Number of insts commited each cycle
system.cpu.commit.committed_per_cycle::mean     1.695568                       # Number of insts commited each cycle
system.cpu.commit.committed_per_cycle::stdev     2.375089                       # Number of insts commited each cycle
system.cpu.commit.committed_per_cycle::underflows            0      0.00%      0.00% # Number of insts commited each cycle
system.cpu.commit.committed_per_cycle::0      3104459     46.23%     46.23% # Number of insts commited each cycle
system.cpu.commit.committed_per_cycle::1      1224539     18.24%     64.47% # Number of insts commited each cycle
system.cpu.commit.committed_per_cycle::2       849249     12.65%     77.12% # Number of insts commited each cycle
system.cpu.commit.committed_per_cycle::3       413416      6.16%     83.27% # Number of insts commited each cycle
system.cpu.commit.committed_per_cycle::4       148165      2.21%     85.48% # Number of insts commited each cycle
system.cpu.commit.committed_per_cycle::5       171757      2.56%     88.04% # Number of insts commited each cycle
system.cpu.commit.committed_per_cycle::6       297125      4.42%     92.46% # Number of insts commited each cycle
system.cpu.commit.committed_per_cycle::7        60458      0.90%     93.36% # Number of insts commited each cycle
system.cpu.commit.committed_per_cycle::8       445578      6.64%    100.00% # Number of insts commited each cycle
system.cpu.commit.committed_per_cycle::overflows            0      0.00%    100.00% # Number of insts commited each cycle
system.cpu.commit.committed_per_cycle::min_value            0                       # Number of insts commited each cycle
system.cpu.commit.committed_per_cycle::max_value            8                       # Number of insts commited each cycle
system.cpu.commit.committed_per_cycle::total      6714746                       # Number of insts commited each cycle
system.cpu.commit.fp_insts                          0                       # Number of committed floating point instructions.
system.cpu.commit.function_calls               116697                       # Number of function calls committed.
system.cpu.commit.int_insts                   9271243                       # Number of committed integer instructions.
system.cpu.commit.loads                       1741320                       # Number of loads committed
system.cpu.commit.membars                        5240                       # Number of memory barriers committed
system.cpu.commit.op_class_0::No_OpClass            5      0.00%      0.00% # Class of committed instruction
system.cpu.commit.op_class_0::IntAlu          8203252     72.05%     72.05% # Class of committed instruction
system.cpu.commit.op_class_0::IntMult           27722      0.24%     72.29% # Class of committed instruction
system.cpu.commit.op_class_0::IntDiv             1042      0.01%     72.30% # Class of committed instruction
system.cpu.commit.op_class_0::FloatAdd          86244      0.76%     73.06% # Class of committed instruction
system.cpu.commit.op_class_0::FloatCmp           5938      0.05%     73.11% # Class of committed instruction
system.cpu.commit.op_class_0::FloatCvt            506      0.00%     73.12% # Class of committed instruction
system.cpu.commit.op_class_0::FloatMult           719      0.01%     73.12% # Class of committed instruction
system.cpu.commit.op_class_0::FloatMultAcc        83053      0.73%     73.85% # Class of committed instruction
system.cpu.commit.op_class_0::FloatDiv             63      0.00%     73.85% # Class of committed instruction
system.cpu.commit.op_class_0::FloatMisc          5519      0.05%     73.90% # Class of committed instruction
system.cpu.commit.op_class_0::FloatSqrt          4214      0.04%     73.94% # Class of committed instruction
system.cpu.commit.op_class_0::SimdAdd              22      0.00%     73.94% # Class of committed instruction
system.cpu.commit.op_class_0::SimdAddAcc            0      0.00%     73.94% # Class of committed instruction
system.cpu.commit.op_class_0::SimdAlu              22      0.00%     73.94% # Class of committed instruction
system.cpu.commit.op_class_0::SimdCmp              20      0.00%     73.94% # Class of committed instruction
system.cpu.commit.op_class_0::SimdCvt              10      0.00%     73.94% # Class of committed instruction
system.cpu.commit.op_class_0::SimdMisc          28016      0.25%     74.19% # Class of committed instruction
system.cpu.commit.op_class_0::SimdMult              0      0.00%     74.19% # Class of committed instruction
system.cpu.commit.op_class_0::SimdMultAcc            0      0.00%     74.19% # Class of committed instruction
system.cpu.commit.op_class_0::SimdShift             0      0.00%     74.19% # Class of committed instruction
system.cpu.commit.op_class_0::SimdShiftAcc            0      0.00%     74.19% # Class of committed instruction
system.cpu.commit.op_class_0::SimdDiv               0      0.00%     74.19% # Class of committed instruction
system.cpu.commit.op_class_0::SimdSqrt              0      0.00%     74.19% # Class of committed instruction
system.cpu.commit.op_class_0::SimdFloatAdd            0      0.00%     74.19% # Class of committed instruction
system.cpu.commit.op_class_0::SimdFloatAlu            0      0.00%     74.19% # Class of committed instruction
system.cpu.commit.op_class_0::SimdFloatCmp            0      0.00%     74.19% # Class of committed instruction
system.cpu.commit.op_class_0::SimdFloatCvt            0      0.00%     74.19% # Class of committed instruction
system.cpu.commit.op_class_0::SimdFloatDiv            0      0.00%     74.19% # Class of committed instruction
system.cpu.commit.op_class_0::SimdFloatMisc            0      0.00%     74.19% # Class of committed instruction
system.cpu.commit.op_class_0::SimdFloatMult            0      0.00%     74.19% # Class of committed instruction
system.cpu.commit.op_class_0::SimdFloatMultAcc            0      0.00%     74.19% # Class of committed instruction
system.cpu.commit.op_class_0::SimdFloatSqrt            0      0.00%     74.19% # Class of committed instruction
system.cpu.commit.op_class_0::SimdReduceAdd            0      0.00%     74.19% # Class of committed instruction
system.cpu.commit.op_class_0::SimdReduceAlu            0      0.00%     74.19% # Class of committed instruction
system.cpu.commit.op_class_0::SimdReduceCmp            0      0.00%     74.19% # Class of committed instruction
system.cpu.commit.op_class_0::SimdFloatReduceAdd            0      0.00%     74.19% # Class of committed instruction
system.cpu.commit.op_class_0::SimdFloatReduceCmp            0      0.00%     74.19% # Class of committed instruction
system.cpu.commit.op_class_0::SimdAes               0      0.00%     74.19% # Class of committed instruction
system.cpu.commit.op_class_0::SimdAesMix            0      0.00%     74.19% # Class of committed instruction
system.cpu.commit.op_class_0::SimdSha1Hash            0      0.00%     74.19% # Class of committed instruction
system.cpu.commit.op_class_0::SimdSha1Hash2            0      0.00%     74.19% # Class of committed instruction
system.cpu.commit.op_class_0::SimdSha256Hash            0      0.00%     74.19% # Class of committed instruction
system.cpu.commit.op_class_0::SimdSha256Hash2            0      0.00%     74.19% # Class of committed instruction
system.cpu.commit.op_class_0::SimdShaSigma2            0      0.00%     74.19% # Class of committed instruction
system.cpu.commit.op_class_0::SimdShaSigma3            0      0.00%     74.19% # Class of committed instruction
system.cpu.commit.op_class_0::SimdPredAlu            0      0.00%     74.19% # Class of committed instruction
system.cpu.commit.op_class_0::MemRead         1741320     15.29%     89.48% # Class of committed instruction
system.cpu.commit.op_class_0::MemWrite        1197623     10.52%    100.00% # Class of committed instruction
system.cpu.commit.op_class_0::FloatMemRead            0      0.00%    100.00% # Class of committed instruction
system.cpu.commit.op_class_0::FloatMemWrite            0      0.00%    100.00% # Class of committed instruction
system.cpu.commit.op_class_0::IprAccess             0      0.00%    100.00% # Class of committed instruction
system.cpu.commit.op_class_0::InstPrefetch            0      0.00%    100.00% # Class of committed instruction
system.cpu.commit.op_class_0::total          11385310                       # Class of committed instruction
system.cpu.commit.refs                        2938943                       # Number of memory references committed
system.cpu.commit.swp_count                         0                       # Number of s/w prefetches committed
system.cpu.commit.vec_insts                    580319                       # Number of committed Vector instructions.
system.cpu.committedInsts                    10000001                       # Number of Instructions Simulated
system.cpu.committedOps                      11373297                       # Number of Ops (including micro ops) Simulated
system.cpu.cpi                               0.755390                       # CPI: Cycles Per Instruction
system.cpu.cpi_total                         0.755390                       # CPI: Total CPI of All Threads
system.cpu.decode.BlockedCycles                768983                       # Number of cycles decode is blocked
system.cpu.decode.BranchMispred                  6968                       # Number of times decode detected a branch misprediction
system.cpu.decode.BranchResolved              1335644                       # Number of times decode resolved a branch
system.cpu.decode.DecodedInsts               12408918                       # Number of instructions handled by decode
system.cpu.decode.IdleCycles                  3445091                       # Number of cycles decode is idle
system.cpu.decode.RunCycles                   2474959                       # Number of cycles decode is running
system.cpu.decode.SquashCycles                  39823                       # Number of cycles decode is squashing
system.cpu.decode.SquashedInsts                 25013                       # Number of squashed instructions handled by decode
system.cpu.decode.UnblockCycles                 93543                       # Number of cycles decode is unblocking
system.cpu.dtb.accesses                             0                       # DTB accesses
system.cpu.dtb.align_faults                         0                       # Number of TLB faults due to alignment restrictions
system.cpu.dtb.domain_faults                        0                       # Number of TLB faults due to domain restrictions
system.cpu.dtb.flush_entries                        0                       # Number of entries that have been flushed from TLB
system.cpu.dtb.flush_tlb                            0                       # Number of times complete TLB was flushed
system.cpu.dtb.flush_tlb_asid                       0                       # Number of times TLB was flushed by ASID
system.cpu.dtb.flush_tlb_mva                        0                       # Number of times TLB was flushed by MVA
system.cpu.dtb.flush_tlb_mva_asid                   0                       # Number of times TLB was flushed by MVA & ASID
system.cpu.dtb.hits                                 0                       # DTB hits
system.cpu.dtb.inst_accesses                        0                       # ITB inst accesses
system.cpu.dtb.inst_hits                            0                       # ITB inst hits
system.cpu.dtb.inst_misses                          0                       # ITB inst misses
system.cpu.dtb.misses                               0                       # DTB misses
system.cpu.dtb.perms_faults                         0                       # Number of TLB faults due to permissions restrictions
system.cpu.dtb.prefetch_faults                      0                       # Number of TLB faults due to prefetch
system.cpu.dtb.read_accesses                        0                       # DTB read accesses
system.cpu.dtb.read_hits                            0                       # DTB read hits
system.cpu.dtb.read_misses                          0                       # DTB read misses
system.cpu.dtb.stage2_mmu.stage2_tlb.accesses            0                       # DTB accesses
system.cpu.dtb.stage2_mmu.stage2_tlb.align_faults            0                       # Number of TLB faults due to alignment restrictions
system.cpu.dtb.stage2_mmu.stage2_tlb.domain_faults            0                       # Number of TLB faults due to domain restrictions
system.cpu.dtb.stage2_mmu.stage2_tlb.flush_entries            0                       # Number of entries that have been flushed from TLB
system.cpu.dtb.stage2_mmu.stage2_tlb.flush_tlb            0                       # Number of times complete TLB was flushed
system.cpu.dtb.stage2_mmu.stage2_tlb.flush_tlb_asid            0                       # Number of times TLB was flushed by ASID
system.cpu.dtb.stage2_mmu.stage2_tlb.flush_tlb_mva            0                       # Number of times TLB was flushed by MVA
system.cpu.dtb.stage2_mmu.stage2_tlb.flush_tlb_mva_asid            0                       # Number of times TLB was flushed by MVA & ASID
system.cpu.dtb.stage2_mmu.stage2_tlb.hits            0                       # DTB hits
system.cpu.dtb.stage2_mmu.stage2_tlb.inst_accesses            0                       # ITB inst accesses
system.cpu.dtb.stage2_mmu.stage2_tlb.inst_hits            0                       # ITB inst hits
system.cpu.dtb.stage2_mmu.stage2_tlb.inst_misses            0                       # ITB inst misses
system.cpu.dtb.stage2_mmu.stage2_tlb.misses            0                       # DTB misses
system.cpu.dtb.stage2_mmu.stage2_tlb.perms_faults            0                       # Number of TLB faults due to permissions restrictions
system.cpu.dtb.stage2_mmu.stage2_tlb.prefetch_faults            0                       # Number of TLB faults due to prefetch
system.cpu.dtb.stage2_mmu.stage2_tlb.read_accesses            0                       # DTB read accesses
system.cpu.dtb.stage2_mmu.stage2_tlb.read_hits            0                       # DTB read hits
system.cpu.dtb.stage2_mmu.stage2_tlb.read_misses            0                       # DTB read misses
system.cpu.dtb.stage2_mmu.stage2_tlb.walker.walkRequestOrigin_Requested::Data            0                       # Table walker requests started/completed, data/inst
system.cpu.dtb.stage2_mmu.stage2_tlb.walker.walkRequestOrigin_Requested::Inst            0                       # Table walker requests started/completed, data/inst
system.cpu.dtb.stage2_mmu.stage2_tlb.walker.walkRequestOrigin_Requested::total            0                       # Table walker requests started/completed, data/inst
system.cpu.dtb.stage2_mmu.stage2_tlb.walker.walkRequestOrigin_Completed::Data            0                       # Table walker requests started/completed, data/inst
system.cpu.dtb.stage2_mmu.stage2_tlb.walker.walkRequestOrigin_Completed::Inst            0                       # Table walker requests started/completed, data/inst
system.cpu.dtb.stage2_mmu.stage2_tlb.walker.walkRequestOrigin_Completed::total            0                       # Table walker requests started/completed, data/inst
system.cpu.dtb.stage2_mmu.stage2_tlb.walker.walkRequestOrigin::total            0                       # Table walker requests started/completed, data/inst
system.cpu.dtb.stage2_mmu.stage2_tlb.walker.walks            0                       # Table walker walks requested
system.cpu.dtb.stage2_mmu.stage2_tlb.write_accesses            0                       # DTB write accesses
system.cpu.dtb.stage2_mmu.stage2_tlb.write_hits            0                       # DTB write hits
system.cpu.dtb.stage2_mmu.stage2_tlb.write_misses            0                       # DTB write misses
system.cpu.dtb.walker.walkRequestOrigin_Requested::Data            0                       # Table walker requests started/completed, data/inst
system.cpu.dtb.walker.walkRequestOrigin_Requested::Inst            0                       # Table walker requests started/completed, data/inst
system.cpu.dtb.walker.walkRequestOrigin_Requested::total            0                       # Table walker requests started/completed, data/inst
system.cpu.dtb.walker.walkRequestOrigin_Completed::Data            0                       # Table walker requests started/completed, data/inst
system.cpu.dtb.walker.walkRequestOrigin_Completed::Inst            0                       # Table walker requests started/completed, data/inst
system.cpu.dtb.walker.walkRequestOrigin_Completed::total            0                       # Table walker requests started/completed, data/inst
system.cpu.dtb.walker.walkRequestOrigin::total            0                       # Table walker requests started/completed, data/inst
system.cpu.dtb.walker.walks                         0                       # Table walker walks requested
system.cpu.dtb.write_accesses                       0                       # DTB write accesses
system.cpu.dtb.write_hits                           0                       # DTB write hits
system.cpu.dtb.write_misses                         0                       # DTB write misses
system.cpu.fetch.Branches                     2847420                       # Number of branches that fetch encountered
system.cpu.fetch.CacheLines                   1732482                       # Number of cache lines fetched
system.cpu.fetch.Cycles                       3154731                       # Number of cycles fetch has run and was not squashing or blocked
system.cpu.fetch.IcacheSquashes                 20984                       # Number of outstanding Icache misses that were squashed
system.cpu.fetch.Insts                       11229067                       # Number of instructions fetch has processed
system.cpu.fetch.SquashCycles                   93482                       # Number of cycles fetch has spent squashing
system.cpu.fetch.branchRate                  0.376947                       # Number of branch fetches per cycle
system.cpu.fetch.icacheStallCycles            3620927                       # Number of cycles fetch is stalled on an Icache miss
system.cpu.fetch.predictedBranches            1521580                       # Number of branches that fetch has predicted taken
system.cpu.fetch.rate                        1.486527                       # Number of inst fetches per cycle
system.cpu.fetch.rateDist::samples            6822399                       # Number of instructions fetched each cycle (Total)
system.cpu.fetch.rateDist::mean              1.859736                       # Number of instructions fetched each cycle (Total)
system.cpu.fetch.rateDist::stdev             2.740461                       # Number of instructions fetched each cycle (Total)
system.cpu.fetch.rateDist::underflows               0      0.00%      0.00% # Number of instructions fetched each cycle (Total)
system.cpu.fetch.rateDist::0                  4125784     60.47%     60.47% # Number of instructions fetched each cycle (Total)
system.cpu.fetch.rateDist::1                   160985      2.36%     62.83% # Number of instructions fetched each cycle (Total)
system.cpu.fetch.rateDist::2                   595225      8.72%     71.56% # Number of instructions fetched each cycle (Total)
system.cpu.fetch.rateDist::3                   166039      2.43%     73.99% # Number of instructions fetched each cycle (Total)
system.cpu.fetch.rateDist::4                   496148      7.27%     81.26% # Number of instructions fetched each cycle (Total)
system.cpu.fetch.rateDist::5                   156135      2.29%     83.55% # Number of instructions fetched each cycle (Total)
system.cpu.fetch.rateDist::6                   348113      5.10%     88.66% # Number of instructions fetched each cycle (Total)
system.cpu.fetch.rateDist::7                   207399      3.04%     91.70% # Number of instructions fetched each cycle (Total)
system.cpu.fetch.rateDist::8                   566571      8.30%    100.00% # Number of instructions fetched each cycle (Total)
system.cpu.fetch.rateDist::overflows                0      0.00%    100.00% # Number of instructions fetched each cycle (Total)
system.cpu.fetch.rateDist::min_value                0                       # Number of instructions fetched each cycle (Total)
system.cpu.fetch.rateDist::max_value                8                       # Number of instructions fetched each cycle (Total)
system.cpu.fetch.rateDist::total              6822399                       # Number of instructions fetched each cycle (Total)
system.cpu.icache.prefetcher.num_hwpf_issued       753866                       # number of hwpf issued
system.cpu.icache.prefetcher.pfBufferHit       766391                       # number of redundant prefetches already in prefetch queue
system.cpu.icache.prefetcher.pfIdentified      1623009                       # number of prefetch candidates identified
system.cpu.icache.prefetcher.pfInCache              0                       # number of redundant prefetches already in cache/mshr dropped
system.cpu.icache.prefetcher.pfRemovedFull         9932                       # number of prefetches dropped due to prefetch queue size
system.cpu.icache.prefetcher.pfSpanPage      42537643                       # number of prefetches that crossed the page
system.cpu.idleCycles                          731497                       # Total number of cycles that the CPU has spent unscheduled due to idling
system.cpu.iew.branchMispredicts                49816                       # Number of branch mispredicts detected at execute
system.cpu.iew.exec_branches                  2573144                       # Number of branches executed
system.cpu.iew.exec_nop                         13027                       # number of nop insts executed
system.cpu.iew.exec_rate                     1.555186                       # Inst execution rate
system.cpu.iew.exec_refs                      3062837                       # number of memory reference insts executed
system.cpu.iew.exec_stores                    1218199                       # Number of stores executed
system.cpu.iew.exec_swp                             0                       # number of swp insts executed
system.cpu.iew.iewBlockCycles                  109629                       # Number of cycles IEW is blocking
system.cpu.iew.iewDispLoadInsts               1856611                       # Number of dispatched load instructions
system.cpu.iew.iewDispNonSpecInsts               5903                       # Number of dispatched non-speculative instructions
system.cpu.iew.iewDispSquashedInsts             24288                       # Number of squashed instructions skipped by dispatch
system.cpu.iew.iewDispStoreInsts              1239765                       # Number of dispatched store instructions
system.cpu.iew.iewDispatchedInsts            12066471                       # Number of instructions dispatched to IQ
system.cpu.iew.iewExecLoadInsts               1844638                       # Number of load instructions executed
system.cpu.iew.iewExecSquashedInsts             59599                       # Number of squashed instructions skipped in execute
system.cpu.iew.iewExecutedInsts              11747711                       # Number of executed instructions
system.cpu.iew.iewIQFullEvents                    436                       # Number of times the IQ has become full, causing a stall
system.cpu.iew.iewIdleCycles                        0                       # Number of cycles IEW is idle
system.cpu.iew.iewLSQFullEvents                  6595                       # Number of times the LSQ has become full, causing a stall
system.cpu.iew.iewSquashCycles                  39823                       # Number of cycles IEW is squashing
system.cpu.iew.iewUnblockCycles                  7281                       # Number of cycles IEW is unblocking
system.cpu.iew.lsq.thread0.blockedLoads             0                       # Number of blocked loads due to partial load-store forwarding
system.cpu.iew.lsq.thread0.cacheBlocked             6                       # Number of times an access to memory failed due to the cache being blocked
system.cpu.iew.lsq.thread0.forwLoads            18825                       # Number of loads that had data forwarded from stores
system.cpu.iew.lsq.thread0.ignoredResponses           22                       # Number of memory responses ignored because the instruction is squashed
system.cpu.iew.lsq.thread0.invAddrLoads             0                       # Number of loads ignored due to an invalid address
system.cpu.iew.lsq.thread0.invAddrSwpfs             0                       # Number of software prefetches ignored due to an invalid address
system.cpu.iew.lsq.thread0.memOrderViolation          221                       # Number of memory ordering violations
system.cpu.iew.lsq.thread0.rescheduledLoads        33652                       # Number of loads that were rescheduled
system.cpu.iew.lsq.thread0.squashedLoads       115289                       # Number of loads squashed
system.cpu.iew.lsq.thread0.squashedStores        42142                       # Number of stores squashed
system.cpu.iew.memOrderViolationEvents            221                       # Number of memory order violations
system.cpu.iew.predictedNotTakenIncorrect        32150                       # Number of branches that were predicted not taken incorrectly
system.cpu.iew.predictedTakenIncorrect          17666                       # Number of branches that were predicted taken incorrectly
system.cpu.iew.wb_consumers                  12180493                       # num instructions consuming a value
system.cpu.iew.wb_count                      11671242                       # cumulative count of insts written-back
system.cpu.iew.wb_fanout                     0.494037                       # average fanout of values written-back
system.cpu.iew.wb_producers                   6017614                       # num instructions producing a value
system.cpu.iew.wb_rate                       1.545063                       # insts written-back per cycle
system.cpu.iew.wb_sent                       11685288                       # cumulative count of insts sent to commit
system.cpu.int_regfile_reads                 13351721                       # number of integer regfile reads
system.cpu.int_regfile_writes                 7862491                       # number of integer regfile writes
system.cpu.ipc                               1.323820                       # IPC: Instructions Per Cycle
system.cpu.ipc_total                         1.323820                       # IPC: Total IPC of All Threads
system.cpu.iq.FU_type_0::No_OpClass                 5      0.00%      0.00% # Type of FU issued
system.cpu.iq.FU_type_0::IntAlu               8476396     71.79%     71.79% # Type of FU issued
system.cpu.iq.FU_type_0::IntMult                28180      0.24%     72.03% # Type of FU issued
system.cpu.iq.FU_type_0::IntDiv                  1097      0.01%     72.04% # Type of FU issued
system.cpu.iq.FU_type_0::FloatAdd               86265      0.73%     72.77% # Type of FU issued
system.cpu.iq.FU_type_0::FloatCmp                6027      0.05%     72.82% # Type of FU issued
system.cpu.iq.FU_type_0::FloatCvt                 516      0.00%     72.82% # Type of FU issued
system.cpu.iq.FU_type_0::FloatMult                738      0.01%     72.83% # Type of FU issued
system.cpu.iq.FU_type_0::FloatMultAcc           83064      0.70%     73.53% # Type of FU issued
system.cpu.iq.FU_type_0::FloatDiv                  64      0.00%     73.53% # Type of FU issued
system.cpu.iq.FU_type_0::FloatMisc               5943      0.05%     73.58% # Type of FU issued
system.cpu.iq.FU_type_0::FloatSqrt               4221      0.04%     73.62% # Type of FU issued
system.cpu.iq.FU_type_0::SimdAdd                   24      0.00%     73.62% # Type of FU issued
system.cpu.iq.FU_type_0::SimdAddAcc                 0      0.00%     73.62% # Type of FU issued
system.cpu.iq.FU_type_0::SimdAlu                   24      0.00%     73.62% # Type of FU issued
system.cpu.iq.FU_type_0::SimdCmp                   20      0.00%     73.62% # Type of FU issued
system.cpu.iq.FU_type_0::SimdCvt                   12      0.00%     73.62% # Type of FU issued
system.cpu.iq.FU_type_0::SimdMisc               28460      0.24%     73.86% # Type of FU issued
system.cpu.iq.FU_type_0::SimdMult                   0      0.00%     73.86% # Type of FU issued
system.cpu.iq.FU_type_0::SimdMultAcc                0      0.00%     73.86% # Type of FU issued
system.cpu.iq.FU_type_0::SimdShift                  0      0.00%     73.86% # Type of FU issued
system.cpu.iq.FU_type_0::SimdShiftAcc               0      0.00%     73.86% # Type of FU issued
system.cpu.iq.FU_type_0::SimdDiv                    0      0.00%     73.86% # Type of FU issued
system.cpu.iq.FU_type_0::SimdSqrt                   0      0.00%     73.86% # Type of FU issued
system.cpu.iq.FU_type_0::SimdFloatAdd               0      0.00%     73.86% # Type of FU issued
system.cpu.iq.FU_type_0::SimdFloatAlu               0      0.00%     73.86% # Type of FU issued
system.cpu.iq.FU_type_0::SimdFloatCmp               0      0.00%     73.86% # Type of FU issued
system.cpu.iq.FU_type_0::SimdFloatCvt               0      0.00%     73.86% # Type of FU issued
system.cpu.iq.FU_type_0::SimdFloatDiv               0      0.00%     73.86% # Type of FU issued
system.cpu.iq.FU_type_0::SimdFloatMisc              0      0.00%     73.86% # Type of FU issued
system.cpu.iq.FU_type_0::SimdFloatMult              0      0.00%     73.86% # Type of FU issued
system.cpu.iq.FU_type_0::SimdFloatMultAcc            0      0.00%     73.86% # Type of FU issued
system.cpu.iq.FU_type_0::SimdFloatSqrt              0      0.00%     73.86% # Type of FU issued
system.cpu.iq.FU_type_0::SimdReduceAdd              0      0.00%     73.86% # Type of FU issued
system.cpu.iq.FU_type_0::SimdReduceAlu              0      0.00%     73.86% # Type of FU issued
system.cpu.iq.FU_type_0::SimdReduceCmp              0      0.00%     73.86% # Type of FU issued
system.cpu.iq.FU_type_0::SimdFloatReduceAdd            0      0.00%     73.86% # Type of FU issued
system.cpu.iq.FU_type_0::SimdFloatReduceCmp            0      0.00%     73.86% # Type of FU issued
system.cpu.iq.FU_type_0::SimdAes                    0      0.00%     73.86% # Type of FU issued
system.cpu.iq.FU_type_0::SimdAesMix                 0      0.00%     73.86% # Type of FU issued
system.cpu.iq.FU_type_0::SimdSha1Hash               0      0.00%     73.86% # Type of FU issued
system.cpu.iq.FU_type_0::SimdSha1Hash2              0      0.00%     73.86% # Type of FU issued
system.cpu.iq.FU_type_0::SimdSha256Hash             0      0.00%     73.86% # Type of FU issued
system.cpu.iq.FU_type_0::SimdSha256Hash2            0      0.00%     73.86% # Type of FU issued
system.cpu.iq.FU_type_0::SimdShaSigma2              0      0.00%     73.86% # Type of FU issued
system.cpu.iq.FU_type_0::SimdShaSigma3              0      0.00%     73.86% # Type of FU issued
system.cpu.iq.FU_type_0::SimdPredAlu                0      0.00%     73.86% # Type of FU issued
system.cpu.iq.FU_type_0::MemRead              1863060     15.78%     89.64% # Type of FU issued
system.cpu.iq.FU_type_0::MemWrite             1223199     10.36%    100.00% # Type of FU issued
system.cpu.iq.FU_type_0::FloatMemRead               0      0.00%    100.00% # Type of FU issued
system.cpu.iq.FU_type_0::FloatMemWrite              0      0.00%    100.00% # Type of FU issued
system.cpu.iq.FU_type_0::IprAccess                  0      0.00%    100.00% # Type of FU issued
system.cpu.iq.FU_type_0::InstPrefetch               0      0.00%    100.00% # Type of FU issued
system.cpu.iq.FU_type_0::total               11807315                       # Type of FU issued
system.cpu.iq.fp_alu_accesses                       0                       # Number of floating point alu accesses
system.cpu.iq.fp_inst_queue_reads                   0                       # Number of floating instruction queue reads
system.cpu.iq.fp_inst_queue_wakeup_accesses            0                       # Number of floating instruction queue wakeup accesses
system.cpu.iq.fp_inst_queue_writes                  0                       # Number of floating instruction queue writes
system.cpu.iq.fu_busy_cnt                      167546                       # FU busy when requested
system.cpu.iq.fu_busy_rate                   0.014190                       # FU busy rate (busy events/executed inst)
system.cpu.iq.fu_full::No_OpClass                   0      0.00%      0.00% # attempts to use FU when none available
system.cpu.iq.fu_full::IntAlu                   33195     19.81%     19.81% # attempts to use FU when none available
system.cpu.iq.fu_full::IntMult                     31      0.02%     19.83% # attempts to use FU when none available
system.cpu.iq.fu_full::IntDiv                       0      0.00%     19.83% # attempts to use FU when none available
system.cpu.iq.fu_full::FloatAdd                     0      0.00%     19.83% # attempts to use FU when none available
system.cpu.iq.fu_full::FloatCmp                     0      0.00%     19.83% # attempts to use FU when none available
system.cpu.iq.fu_full::FloatCvt                     0      0.00%     19.83% # attempts to use FU when none available
system.cpu.iq.fu_full::FloatMult                  128      0.08%     19.91% # attempts to use FU when none available
system.cpu.iq.fu_full::FloatMultAcc                99      0.06%     19.97% # attempts to use FU when none available
system.cpu.iq.fu_full::FloatDiv                   238      0.14%     20.11% # attempts to use FU when none available
system.cpu.iq.fu_full::FloatMisc                   37      0.02%     20.13% # attempts to use FU when none available
system.cpu.iq.fu_full::FloatSqrt                   27      0.02%     20.15% # attempts to use FU when none available
system.cpu.iq.fu_full::SimdAdd                      0      0.00%     20.15% # attempts to use FU when none available
system.cpu.iq.fu_full::SimdAddAcc                   0      0.00%     20.15% # attempts to use FU when none available
system.cpu.iq.fu_full::SimdAlu                      1      0.00%     20.15% # attempts to use FU when none available
system.cpu.iq.fu_full::SimdCmp                      2      0.00%     20.15% # attempts to use FU when none available
system.cpu.iq.fu_full::SimdCvt                      0      0.00%     20.15% # attempts to use FU when none available
system.cpu.iq.fu_full::SimdMisc                     0      0.00%     20.15% # attempts to use FU when none available
system.cpu.iq.fu_full::SimdMult                     0      0.00%     20.15% # attempts to use FU when none available
system.cpu.iq.fu_full::SimdMultAcc                  0      0.00%     20.15% # attempts to use FU when none available
system.cpu.iq.fu_full::SimdShift                    0      0.00%     20.15% # attempts to use FU when none available
system.cpu.iq.fu_full::SimdShiftAcc                 0      0.00%     20.15% # attempts to use FU when none available
system.cpu.iq.fu_full::SimdDiv                      0      0.00%     20.15% # attempts to use FU when none available
system.cpu.iq.fu_full::SimdSqrt                     0      0.00%     20.15% # attempts to use FU when none available
system.cpu.iq.fu_full::SimdFloatAdd                 0      0.00%     20.15% # attempts to use FU when none available
system.cpu.iq.fu_full::SimdFloatAlu                 0      0.00%     20.15% # attempts to use FU when none available
system.cpu.iq.fu_full::SimdFloatCmp                 0      0.00%     20.15% # attempts to use FU when none available
system.cpu.iq.fu_full::SimdFloatCvt                 0      0.00%     20.15% # attempts to use FU when none available
system.cpu.iq.fu_full::SimdFloatDiv                 0      0.00%     20.15% # attempts to use FU when none available
system.cpu.iq.fu_full::SimdFloatMisc                0      0.00%     20.15% # attempts to use FU when none available
system.cpu.iq.fu_full::SimdFloatMult                0      0.00%     20.15% # attempts to use FU when none available
system.cpu.iq.fu_full::SimdFloatMultAcc             0      0.00%     20.15% # attempts to use FU when none available
system.cpu.iq.fu_full::SimdFloatSqrt                0      0.00%     20.15% # attempts to use FU when none available
system.cpu.iq.fu_full::SimdReduceAdd                0      0.00%     20.15% # attempts to use FU when none available
system.cpu.iq.fu_full::SimdReduceAlu                0      0.00%     20.15% # attempts to use FU when none available
system.cpu.iq.fu_full::SimdReduceCmp                0      0.00%     20.15% # attempts to use FU when none available
system.cpu.iq.fu_full::SimdFloatReduceAdd            0      0.00%     20.15% # attempts to use FU when none available
system.cpu.iq.fu_full::SimdFloatReduceCmp            0      0.00%     20.15% # attempts to use FU when none available
system.cpu.iq.fu_full::SimdAes                      0      0.00%     20.15% # attempts to use FU when none available
system.cpu.iq.fu_full::SimdAesMix                   0      0.00%     20.15% # attempts to use FU when none available
system.cpu.iq.fu_full::SimdSha1Hash                 0      0.00%     20.15% # attempts to use FU when none available
system.cpu.iq.fu_full::SimdSha1Hash2                0      0.00%     20.15% # attempts to use FU when none available
system.cpu.iq.fu_full::SimdSha256Hash               0      0.00%     20.15% # attempts to use FU when none available
system.cpu.iq.fu_full::SimdSha256Hash2              0      0.00%     20.15% # attempts to use FU when none available
system.cpu.iq.fu_full::SimdShaSigma2                0      0.00%     20.15% # attempts to use FU when none available
system.cpu.iq.fu_full::SimdShaSigma3                0      0.00%     20.15% # attempts to use FU when none available
system.cpu.iq.fu_full::SimdPredAlu                  0      0.00%     20.15% # attempts to use FU when none available
system.cpu.iq.fu_full::MemRead                  49178     29.35%     49.50% # attempts to use FU when none available
system.cpu.iq.fu_full::MemWrite                 84610     50.50%    100.00% # attempts to use FU when none available
system.cpu.iq.fu_full::FloatMemRead                 0      0.00%    100.00% # attempts to use FU when none available
system.cpu.iq.fu_full::FloatMemWrite                0      0.00%    100.00% # attempts to use FU when none available
system.cpu.iq.fu_full::IprAccess                    0      0.00%    100.00% # attempts to use FU when none available
system.cpu.iq.fu_full::InstPrefetch                 0      0.00%    100.00% # attempts to use FU when none available
system.cpu.iq.int_alu_accesses               11366455                       # Number of integer alu accesses
system.cpu.iq.int_inst_queue_reads           29413695                       # Number of integer instruction queue reads
system.cpu.iq.int_inst_queue_wakeup_accesses     11088125                       # Number of integer instruction queue wakeup accesses
system.cpu.iq.int_inst_queue_writes          12137579                       # Number of integer instruction queue writes
system.cpu.iq.iqInstsAdded                   12047541                       # Number of instructions added to the IQ (excludes non-spec)
system.cpu.iq.iqInstsIssued                  11807315                       # Number of instructions issued
system.cpu.iq.iqNonSpecInstsAdded                5903                       # Number of non-speculative instructions added to the IQ
system.cpu.iq.iqSquashedInstsExamined          680136                       # Number of squashed instructions iterated over during squash; mainly for profiling
system.cpu.iq.iqSquashedInstsIssued              2559                       # Number of squashed instructions issued
system.cpu.iq.iqSquashedNonSpecRemoved            609                       # Number of squashed non-spec instructions that were removed
system.cpu.iq.iqSquashedOperandsExamined       703480                       # Number of squashed operands that are examined and possibly removed from graph
system.cpu.iq.issued_per_cycle::samples       6822399                       # Number of insts issued each cycle
system.cpu.iq.issued_per_cycle::mean         1.730669                       # Number of insts issued each cycle
system.cpu.iq.issued_per_cycle::stdev        2.119705                       # Number of insts issued each cycle
system.cpu.iq.issued_per_cycle::underflows            0      0.00%      0.00% # Number of insts issued each cycle
system.cpu.iq.issued_per_cycle::0             2976411     43.63%     43.63% # Number of insts issued each cycle
system.cpu.iq.issued_per_cycle::1             1140176     16.71%     60.34% # Number of insts issued each cycle
system.cpu.iq.issued_per_cycle::2              711224     10.42%     70.76% # Number of insts issued each cycle
system.cpu.iq.issued_per_cycle::3              595804      8.73%     79.50% # Number of insts issued each cycle
system.cpu.iq.issued_per_cycle::4              480596      7.04%     86.54% # Number of insts issued each cycle
system.cpu.iq.issued_per_cycle::5              264077      3.87%     90.41% # Number of insts issued each cycle
system.cpu.iq.issued_per_cycle::6              431208      6.32%     96.73% # Number of insts issued each cycle
system.cpu.iq.issued_per_cycle::7              155962      2.29%     99.02% # Number of insts issued each cycle
system.cpu.iq.issued_per_cycle::8               66941      0.98%    100.00% # Number of insts issued each cycle
system.cpu.iq.issued_per_cycle::overflows            0      0.00%    100.00% # Number of insts issued each cycle
system.cpu.iq.issued_per_cycle::min_value            0                       # Number of insts issued each cycle
system.cpu.iq.issued_per_cycle::max_value            8                       # Number of insts issued each cycle
system.cpu.iq.issued_per_cycle::total         6822399                       # Number of insts issued each cycle
system.cpu.iq.rate                           1.563076                       # Inst issue rate
system.cpu.iq.vec_alu_accesses                 608401                       # Number of vector alu accesses
system.cpu.iq.vec_inst_queue_reads            1193434                       # Number of vector instruction queue reads
system.cpu.iq.vec_inst_queue_wakeup_accesses       583117                       # Number of vector instruction queue wakeup accesses
system.cpu.iq.vec_inst_queue_writes            596213                       # Number of vector instruction queue writes
system.cpu.itb.accesses                             0                       # DTB accesses
system.cpu.itb.align_faults                         0                       # Number of TLB faults due to alignment restrictions
system.cpu.itb.domain_faults                        0                       # Number of TLB faults due to domain restrictions
system.cpu.itb.flush_entries                        0                       # Number of entries that have been flushed from TLB
system.cpu.itb.flush_tlb                            0                       # Number of times complete TLB was flushed
system.cpu.itb.flush_tlb_asid                       0                       # Number of times TLB was flushed by ASID
system.cpu.itb.flush_tlb_mva                        0                       # Number of times TLB was flushed by MVA
system.cpu.itb.flush_tlb_mva_asid                   0                       # Number of times TLB was flushed by MVA & ASID
system.cpu.itb.hits                                 0                       # DTB hits
system.cpu.itb.inst_accesses                        0                       # ITB inst accesses
system.cpu.itb.inst_hits                            0                       # ITB inst hits
system.cpu.itb.inst_misses                          0                       # ITB inst misses
system.cpu.itb.misses                               0                       # DTB misses
system.cpu.itb.perms_faults                         0                       # Number of TLB faults due to permissions restrictions
system.cpu.itb.prefetch_faults                      0                       # Number of TLB faults due to prefetch
system.cpu.itb.read_accesses                        0                       # DTB read accesses
system.cpu.itb.read_hits                            0                       # DTB read hits
system.cpu.itb.read_misses                          0                       # DTB read misses
system.cpu.itb.stage2_mmu.stage2_tlb.accesses            0                       # DTB accesses
system.cpu.itb.stage2_mmu.stage2_tlb.align_faults            0                       # Number of TLB faults due to alignment restrictions
system.cpu.itb.stage2_mmu.stage2_tlb.domain_faults            0                       # Number of TLB faults due to domain restrictions
system.cpu.itb.stage2_mmu.stage2_tlb.flush_entries            0                       # Number of entries that have been flushed from TLB
system.cpu.itb.stage2_mmu.stage2_tlb.flush_tlb            0                       # Number of times complete TLB was flushed
system.cpu.itb.stage2_mmu.stage2_tlb.flush_tlb_asid            0                       # Number of times TLB was flushed by ASID
system.cpu.itb.stage2_mmu.stage2_tlb.flush_tlb_mva            0                       # Number of times TLB was flushed by MVA
system.cpu.itb.stage2_mmu.stage2_tlb.flush_tlb_mva_asid            0                       # Number of times TLB was flushed by MVA & ASID
system.cpu.itb.stage2_mmu.stage2_tlb.hits            0                       # DTB hits
system.cpu.itb.stage2_mmu.stage2_tlb.inst_accesses            0                       # ITB inst accesses
system.cpu.itb.stage2_mmu.stage2_tlb.inst_hits            0                       # ITB inst hits
system.cpu.itb.stage2_mmu.stage2_tlb.inst_misses            0                       # ITB inst misses
system.cpu.itb.stage2_mmu.stage2_tlb.misses            0                       # DTB misses
system.cpu.itb.stage2_mmu.stage2_tlb.perms_faults            0                       # Number of TLB faults due to permissions restrictions
system.cpu.itb.stage2_mmu.stage2_tlb.prefetch_faults            0                       # Number of TLB faults due to prefetch
system.cpu.itb.stage2_mmu.stage2_tlb.read_accesses            0                       # DTB read accesses
system.cpu.itb.stage2_mmu.stage2_tlb.read_hits            0                       # DTB read hits
system.cpu.itb.stage2_mmu.stage2_tlb.read_misses            0                       # DTB read misses
system.cpu.itb.stage2_mmu.stage2_tlb.walker.walkRequestOrigin_Requested::Data            0                       # Table walker requests started/completed, data/inst
system.cpu.itb.stage2_mmu.stage2_tlb.walker.walkRequestOrigin_Requested::Inst            0                       # Table walker requests started/completed, data/inst
system.cpu.itb.stage2_mmu.stage2_tlb.walker.walkRequestOrigin_Requested::total            0                       # Table walker requests started/completed, data/inst
system.cpu.itb.stage2_mmu.stage2_tlb.walker.walkRequestOrigin_Completed::Data            0                       # Table walker requests started/completed, data/inst
system.cpu.itb.stage2_mmu.stage2_tlb.walker.walkRequestOrigin_Completed::Inst            0                       # Table walker requests started/completed, data/inst
system.cpu.itb.stage2_mmu.stage2_tlb.walker.walkRequestOrigin_Completed::total            0                       # Table walker requests started/completed, data/inst
system.cpu.itb.stage2_mmu.stage2_tlb.walker.walkRequestOrigin::total            0                       # Table walker requests started/completed, data/inst
system.cpu.itb.stage2_mmu.stage2_tlb.walker.walks            0                       # Table walker walks requested
system.cpu.itb.stage2_mmu.stage2_tlb.write_accesses            0                       # DTB write accesses
system.cpu.itb.stage2_mmu.stage2_tlb.write_hits            0                       # DTB write hits
system.cpu.itb.stage2_mmu.stage2_tlb.write_misses            0                       # DTB write misses
system.cpu.itb.walker.walkRequestOrigin_Requested::Data            0                       # Table walker requests started/completed, data/inst
system.cpu.itb.walker.walkRequestOrigin_Requested::Inst            0                       # Table walker requests started/completed, data/inst
system.cpu.itb.walker.walkRequestOrigin_Requested::total            0                       # Table walker requests started/completed, data/inst
system.cpu.itb.walker.walkRequestOrigin_Completed::Data            0                       # Table walker requests started/completed, data/inst
system.cpu.itb.walker.walkRequestOrigin_Completed::Inst            0                       # Table walker requests started/completed, data/inst
system.cpu.itb.walker.walkRequestOrigin_Completed::total            0                       # Table walker requests started/completed, data/inst
system.cpu.itb.walker.walkRequestOrigin::total            0                       # Table walker requests started/completed, data/inst
system.cpu.itb.walker.walks                         0                       # Table walker walks requested
system.cpu.itb.write_accesses                       0                       # DTB write accesses
system.cpu.itb.write_hits                           0                       # DTB write hits
system.cpu.itb.write_misses                         0                       # DTB write misses
system.cpu.memDep0.conflictingLoads             30879                       # Number of conflicting loads.
system.cpu.memDep0.conflictingStores            56415                       # Number of conflicting stores.
system.cpu.memDep0.insertedLoads              1856611                       # Number of loads inserted to the mem dependence unit.
system.cpu.memDep0.insertedStores             1239765                       # Number of stores inserted to the mem dependence unit.
system.cpu.misc_regfile_reads                 9112951                       # number of misc regfile reads
system.cpu.misc_regfile_writes                 202510                       # number of misc regfile writes
system.cpu.numCycles                          7553896                       # number of cpu cycles simulated
system.cpu.numWorkItemsCompleted                    0                       # number of work items this cpu completed
system.cpu.numWorkItemsStarted                      0                       # number of work items this cpu started
system.cpu.rename.BlockCycles                  123144                       # Number of cycles rename is blocking
system.cpu.rename.CommittedMaps              14124428                       # Number of HB maps that are committed
system.cpu.rename.IQFullEvents                  43733                       # Number of times rename has blocked due to IQ full
system.cpu.rename.IdleCycles                  3507563                       # Number of cycles rename is idle
system.cpu.rename.LQFullEvents                  87415                       # Number of times rename has blocked due to LQ full
system.cpu.rename.ROBFullEvents                   116                       # Number of times rename has blocked due to ROB full
system.cpu.rename.RenameLookups              22478619                       # Number of register rename lookups that rename has made
system.cpu.rename.RenamedInsts               12283872                       # Number of instructions processed by rename
system.cpu.rename.RenamedOperands            15271709                       # Number of destination operands rename has renamed
system.cpu.rename.RunCycles                   2501097                       # Number of cycles rename is running
system.cpu.rename.SQFullEvents                 152624                       # Number of times rename has blocked due to SQ full
system.cpu.rename.SquashCycles                  39823                       # Number of cycles rename is squashing
system.cpu.rename.UnblockCycles                325040                       # Number of cycles rename is unblocking
system.cpu.rename.UndoneMaps                  1147254                       # Number of HB maps that are undone due to squashing
system.cpu.rename.int_rename_lookups         13953442                       # Number of integer rename lookups
system.cpu.rename.serializeStallCycles         325732                       # count of cycles rename stalled for serializing inst
system.cpu.rename.serializingInsts              23662                       # count of serializing insts renamed
system.cpu.rename.skidInsts                    471441                       # count of insts added to the skid buffer
system.cpu.rename.tempSerializingInsts           5910                       # count of temporary serializing insts renamed
system.cpu.rename.vec_rename_lookups           634347                       # Number of vector rename lookups
system.cpu.rob.rob_reads                     18334697                       # The number of ROB reads
system.cpu.rob.rob_writes                    24241313                       # The number of ROB writes
system.cpu.timesIdled                           69441                       # Number of times that the entire CPU went into an idle state and unscheduled itself
system.cpu.vec_regfile_reads                   626915                       # number of vector regfile reads
system.cpu.vec_regfile_writes                  390029                       # number of vector regfile writes
system.cpu.workload.numSyscalls                    53                       # Number of system calls
system.membus.snoop_filter.hit_multi_requests            0                       # Number of requests hitting in the snoop filter with multiple (>1) holders of the requested data.
system.membus.snoop_filter.hit_multi_snoops            0                       # Number of snoops hitting in the snoop filter with multiple (>1) holders of the requested data.
system.membus.snoop_filter.hit_single_requests            0                       # Number of requests hitting in the snoop filter with a single holder of the requested data.
system.membus.snoop_filter.hit_single_snoops            0                       # Number of snoops hitting in the snoop filter with a single holder of the requested data.
system.membus.snoop_filter.tot_requests          3735                       # Total number of requests made to the snoop filter.
system.membus.snoop_filter.tot_snoops               0                       # Total number of snoops made to the snoop filter.
system.tol2bus.snoop_filter.hit_multi_requests           25                       # Number of requests hitting in the snoop filter with multiple (>1) holders of the requested data.
system.tol2bus.snoop_filter.hit_multi_snoops            0                       # Number of snoops hitting in the snoop filter with multiple (>1) holders of the requested data.
system.tol2bus.snoop_filter.hit_single_requests       381809                       # Number of requests hitting in the snoop filter with a single holder of the requested data.
system.tol2bus.snoop_filter.hit_single_snoops            0                       # Number of snoops hitting in the snoop filter with a single holder of the requested data.
system.tol2bus.snoop_filter.tot_requests       764836                       # Total number of requests made to the snoop filter.
system.tol2bus.snoop_filter.tot_snoops              0                       # Total number of snoops made to the snoop filter.
system.membus.trans_dist::ReadResp               3052                       # Transaction distribution
system.membus.trans_dist::ReadExReq               524                       # Transaction distribution
system.membus.trans_dist::ReadExResp              524                       # Transaction distribution
system.membus.trans_dist::ReadSharedReq          3052                       # Transaction distribution
system.membus.trans_dist::InvalidateReq           159                       # Transaction distribution
system.membus.pkt_count_system.l2.mem_side::system.mem_ctrls.port         7311                       # Packet count per connected master and slave (bytes)
system.membus.pkt_count::total                   7311                       # Packet count per connected master and slave (bytes)
system.membus.pkt_size_system.l2.mem_side::system.mem_ctrls.port       228864                       # Cumulative packet size per connected master and slave (bytes)
system.membus.pkt_size::total                  228864                       # Cumulative packet size per connected master and slave (bytes)
system.membus.snoops                                0                       # Total snoops (count)
system.membus.snoopTraffic                          0                       # Total snoop traffic (bytes)
system.membus.snoop_fanout::samples              3735                       # Request fanout histogram
system.membus.snoop_fanout::mean                    0                       # Request fanout histogram
system.membus.snoop_fanout::stdev                   0                       # Request fanout histogram
system.membus.snoop_fanout::underflows              0      0.00%      0.00% # Request fanout histogram
system.membus.snoop_fanout::0                    3735    100.00%    100.00% # Request fanout histogram
system.membus.snoop_fanout::1                       0      0.00%    100.00% # Request fanout histogram
system.membus.snoop_fanout::overflows               0      0.00%    100.00% # Request fanout histogram
system.membus.snoop_fanout::min_value               0                       # Request fanout histogram
system.membus.snoop_fanout::max_value               0                       # Request fanout histogram
system.membus.snoop_fanout::total                3735                       # Request fanout histogram
system.membus.reqLayer0.occupancy             4528000                       # Layer occupancy (ticks)
system.membus.reqLayer0.utilization               0.1                       # Layer utilization (%)
system.membus.respLayer1.occupancy           18936250                       # Layer occupancy (ticks)
system.membus.respLayer1.utilization              0.5                       # Layer utilization (%)
system.membus.power_state.pwrStateResidencyTicks::UNDEFINED   3776947500                       # Cumulative time (in ticks) in various power states
system.tol2bus.trans_dist::ReadResp            382280                       # Transaction distribution
system.tol2bus.trans_dist::WritebackDirty          634                       # Transaction distribution
system.tol2bus.trans_dist::WritebackClean       380751                       # Transaction distribution
system.tol2bus.trans_dist::CleanEvict             414                       # Transaction distribution
system.tol2bus.trans_dist::UpgradeReq               7                       # Transaction distribution
system.tol2bus.trans_dist::UpgradeResp              7                       # Transaction distribution
system.tol2bus.trans_dist::ReadExReq              588                       # Transaction distribution
system.tol2bus.trans_dist::ReadExResp             588                       # Transaction distribution
system.tol2bus.trans_dist::ReadCleanReq        381012                       # Transaction distribution
system.tol2bus.trans_dist::ReadSharedReq         1268                       # Transaction distribution
system.tol2bus.trans_dist::InvalidateReq          162                       # Transaction distribution
system.tol2bus.trans_dist::InvalidateResp          162                       # Transaction distribution
system.tol2bus.pkt_count_system.cpu.icache.mem_side::system.l2.cpu_side      1142765                       # Packet count per connected master and slave (bytes)
system.tol2bus.pkt_count_system.cpu.dcache.mem_side::system.l2.cpu_side         5098                       # Packet count per connected master and slave (bytes)
system.tol2bus.pkt_count::total               1147863                       # Packet count per connected master and slave (bytes)
system.tol2bus.pkt_size_system.cpu.icache.mem_side::system.l2.cpu_side     48752192                       # Cumulative packet size per connected master and slave (bytes)
system.tol2bus.pkt_size_system.cpu.dcache.mem_side::system.l2.cpu_side       159360                       # Cumulative packet size per connected master and slave (bytes)
system.tol2bus.pkt_size::total               48911552                       # Cumulative packet size per connected master and slave (bytes)
system.tol2bus.snoops                              10                       # Total snoops (count)
system.tol2bus.snoopTraffic                       640                       # Total snoop traffic (bytes)
system.tol2bus.snoop_fanout::samples           383037                       # Request fanout histogram
system.tol2bus.snoop_fanout::mean            0.000078                       # Request fanout histogram
system.tol2bus.snoop_fanout::stdev           0.008850                       # Request fanout histogram
system.tol2bus.snoop_fanout::underflows             0      0.00%      0.00% # Request fanout histogram
system.tol2bus.snoop_fanout::0                 383007     99.99%     99.99% # Request fanout histogram
system.tol2bus.snoop_fanout::1                     30      0.01%    100.00% # Request fanout histogram
system.tol2bus.snoop_fanout::2                      0      0.00%    100.00% # Request fanout histogram
system.tol2bus.snoop_fanout::overflows              0      0.00%    100.00% # Request fanout histogram
system.tol2bus.snoop_fanout::min_value              0                       # Request fanout histogram
system.tol2bus.snoop_fanout::max_value              1                       # Request fanout histogram
system.tol2bus.snoop_fanout::total             383037                       # Request fanout histogram
system.tol2bus.reqLayer0.occupancy          780988374                       # Layer occupancy (ticks)
system.tol2bus.reqLayer0.utilization             20.7                       # Layer utilization (%)
system.tol2bus.respLayer1.occupancy           2916903                       # Layer occupancy (ticks)
system.tol2bus.respLayer1.utilization             0.1                       # Layer utilization (%)
system.tol2bus.respLayer0.occupancy         571518000                       # Layer occupancy (ticks)
system.tol2bus.respLayer0.utilization            15.1                       # Layer utilization (%)
system.tol2bus.power_state.pwrStateResidencyTicks::UNDEFINED   3776947500                       # Cumulative time (in ticks) in various power states
system.voltage_domain.voltage                       1                       # Voltage in Volts
system.clk_domain.clock                          1000                       # Clock period in ticks
system.l2.demand_hits::.cpu.inst                78473                       # number of demand (read+write) hits
system.l2.demand_hits::.cpu.data                  377                       # number of demand (read+write) hits
system.l2.demand_hits::.cpu.icache.prefetcher       300432                       # number of demand (read+write) hits
system.l2.demand_hits::total                   379282                       # number of demand (read+write) hits
system.l2.overall_hits::.cpu.inst               78473                       # number of overall hits
system.l2.overall_hits::.cpu.data                 377                       # number of overall hits
system.l2.overall_hits::.cpu.icache.prefetcher       300432                       # number of overall hits
system.l2.overall_hits::total                  379282                       # number of overall hits
system.l2.demand_misses::.cpu.inst               2097                       # number of demand (read+write) misses
system.l2.demand_misses::.cpu.data               1479                       # number of demand (read+write) misses
system.l2.demand_misses::total                   3576                       # number of demand (read+write) misses
system.l2.overall_misses::.cpu.inst              2097                       # number of overall misses
system.l2.overall_misses::.cpu.data              1479                       # number of overall misses
system.l2.overall_misses::total                  3576                       # number of overall misses
system.l2.demand_miss_latency::.cpu.inst    163559500                       # number of demand (read+write) miss cycles
system.l2.demand_miss_latency::.cpu.data    118384500                       # number of demand (read+write) miss cycles
system.l2.demand_miss_latency::total        281944000                       # number of demand (read+write) miss cycles
system.l2.overall_miss_latency::.cpu.inst    163559500                       # number of overall miss cycles
system.l2.overall_miss_latency::.cpu.data    118384500                       # number of overall miss cycles
system.l2.overall_miss_latency::total       281944000                       # number of overall miss cycles
system.l2.demand_accesses::.cpu.inst            80570                       # number of demand (read+write) accesses
system.l2.demand_accesses::.cpu.data             1856                       # number of demand (read+write) accesses
system.l2.demand_accesses::.cpu.icache.prefetcher       300432                       # number of demand (read+write) accesses
system.l2.demand_accesses::total               382858                       # number of demand (read+write) accesses
system.l2.overall_accesses::.cpu.inst           80570                       # number of overall (read+write) accesses
system.l2.overall_accesses::.cpu.data            1856                       # number of overall (read+write) accesses
system.l2.overall_accesses::.cpu.icache.prefetcher       300432                       # number of overall (read+write) accesses
system.l2.overall_accesses::total              382858                       # number of overall (read+write) accesses
system.l2.demand_miss_rate::.cpu.inst        0.026027                       # miss rate for demand accesses
system.l2.demand_miss_rate::.cpu.data        0.796875                       # miss rate for demand accesses
system.l2.demand_miss_rate::total            0.009340                       # miss rate for demand accesses
system.l2.overall_miss_rate::.cpu.inst       0.026027                       # miss rate for overall accesses
system.l2.overall_miss_rate::.cpu.data       0.796875                       # miss rate for overall accesses
system.l2.overall_miss_rate::total           0.009340                       # miss rate for overall accesses
system.l2.demand_avg_miss_latency::.cpu.inst 77996.900334                       # average overall miss latency
system.l2.demand_avg_miss_latency::.cpu.data 80043.610548                       # average overall miss latency
system.l2.demand_avg_miss_latency::total 78843.400447                       # average overall miss latency
system.l2.overall_avg_miss_latency::.cpu.inst 77996.900334                       # average overall miss latency
system.l2.overall_avg_miss_latency::.cpu.data 80043.610548                       # average overall miss latency
system.l2.overall_avg_miss_latency::total 78843.400447                       # average overall miss latency
system.l2.blocked_cycles::no_mshrs                  0                       # number of cycles access was blocked
system.l2.blocked_cycles::no_targets                0                       # number of cycles access was blocked
system.l2.blocked::no_mshrs                         0                       # number of cycles access was blocked
system.l2.blocked::no_targets                       0                       # number of cycles access was blocked
system.l2.avg_blocked_cycles::no_mshrs            nan                       # average number of cycles each access was blocked
system.l2.avg_blocked_cycles::no_targets          nan                       # average number of cycles each access was blocked
system.l2.demand_mshr_misses::.cpu.inst          2097                       # number of demand (read+write) MSHR misses
system.l2.demand_mshr_misses::.cpu.data          1479                       # number of demand (read+write) MSHR misses
system.l2.demand_mshr_misses::total              3576                       # number of demand (read+write) MSHR misses
system.l2.overall_mshr_misses::.cpu.inst         2097                       # number of overall MSHR misses
system.l2.overall_mshr_misses::.cpu.data         1479                       # number of overall MSHR misses
system.l2.overall_mshr_misses::total             3576                       # number of overall MSHR misses
system.l2.demand_mshr_miss_latency::.cpu.inst    142589500                       # number of demand (read+write) MSHR miss cycles
system.l2.demand_mshr_miss_latency::.cpu.data    103594001                       # number of demand (read+write) MSHR miss cycles
system.l2.demand_mshr_miss_latency::total    246183501                       # number of demand (read+write) MSHR miss cycles
system.l2.overall_mshr_miss_latency::.cpu.inst    142589500                       # number of overall MSHR miss cycles
system.l2.overall_mshr_miss_latency::.cpu.data    103594001                       # number of overall MSHR miss cycles
system.l2.overall_mshr_miss_latency::total    246183501                       # number of overall MSHR miss cycles
system.l2.demand_mshr_miss_rate::.cpu.inst     0.026027                       # mshr miss rate for demand accesses
system.l2.demand_mshr_miss_rate::.cpu.data     0.796875                       # mshr miss rate for demand accesses
system.l2.demand_mshr_miss_rate::total       0.009340                       # mshr miss rate for demand accesses
system.l2.overall_mshr_miss_rate::.cpu.inst     0.026027                       # mshr miss rate for overall accesses
system.l2.overall_mshr_miss_rate::.cpu.data     0.796875                       # mshr miss rate for overall accesses
system.l2.overall_mshr_miss_rate::total      0.009340                       # mshr miss rate for overall accesses
system.l2.demand_avg_mshr_miss_latency::.cpu.inst 67996.900334                       # average overall mshr miss latency
system.l2.demand_avg_mshr_miss_latency::.cpu.data 70043.273158                       # average overall mshr miss latency
system.l2.demand_avg_mshr_miss_latency::total 68843.260906                       # average overall mshr miss latency
system.l2.overall_avg_mshr_miss_latency::.cpu.inst 67996.900334                       # average overall mshr miss latency
system.l2.overall_avg_mshr_miss_latency::.cpu.data 70043.273158                       # average overall mshr miss latency
system.l2.overall_avg_mshr_miss_latency::total 68843.260906                       # average overall mshr miss latency
system.l2.replacements                              0                       # number of replacements
system.l2.WritebackDirty_hits::.writebacks          634                       # number of WritebackDirty hits
system.l2.WritebackDirty_hits::total              634                       # number of WritebackDirty hits
system.l2.WritebackDirty_accesses::.writebacks          634                       # number of WritebackDirty accesses(hits+misses)
system.l2.WritebackDirty_accesses::total          634                       # number of WritebackDirty accesses(hits+misses)
system.l2.WritebackClean_hits::.writebacks       380732                       # number of WritebackClean hits
system.l2.WritebackClean_hits::total           380732                       # number of WritebackClean hits
system.l2.WritebackClean_accesses::.writebacks       380732                       # number of WritebackClean accesses(hits+misses)
system.l2.WritebackClean_accesses::total       380732                       # number of WritebackClean accesses(hits+misses)
system.l2.UpgradeReq_hits::.cpu.data                7                       # number of UpgradeReq hits
system.l2.UpgradeReq_hits::total                    7                       # number of UpgradeReq hits
system.l2.UpgradeReq_accesses::.cpu.data            7                       # number of UpgradeReq accesses(hits+misses)
system.l2.UpgradeReq_accesses::total                7                       # number of UpgradeReq accesses(hits+misses)
system.l2.ReadExReq_hits::.cpu.data                64                       # number of ReadExReq hits
system.l2.ReadExReq_hits::total                    64                       # number of ReadExReq hits
system.l2.ReadExReq_misses::.cpu.data             524                       # number of ReadExReq misses
system.l2.ReadExReq_misses::total                 524                       # number of ReadExReq misses
system.l2.ReadExReq_miss_latency::.cpu.data     42926500                       # number of ReadExReq miss cycles
system.l2.ReadExReq_miss_latency::total      42926500                       # number of ReadExReq miss cycles
system.l2.ReadExReq_accesses::.cpu.data           588                       # number of ReadExReq accesses(hits+misses)
system.l2.ReadExReq_accesses::total               588                       # number of ReadExReq accesses(hits+misses)
system.l2.ReadExReq_miss_rate::.cpu.data     0.891156                       # miss rate for ReadExReq accesses
system.l2.ReadExReq_miss_rate::total         0.891156                       # miss rate for ReadExReq accesses
system.l2.ReadExReq_avg_miss_latency::.cpu.data 81920.801527                       # average ReadExReq miss latency
system.l2.ReadExReq_avg_miss_latency::total 81920.801527                       # average ReadExReq miss latency
system.l2.ReadExReq_mshr_misses::.cpu.data          524                       # number of ReadExReq MSHR misses
system.l2.ReadExReq_mshr_misses::total            524                       # number of ReadExReq MSHR misses
system.l2.ReadExReq_mshr_miss_latency::.cpu.data     37686001                       # number of ReadExReq MSHR miss cycles
system.l2.ReadExReq_mshr_miss_latency::total     37686001                       # number of ReadExReq MSHR miss cycles
system.l2.ReadExReq_mshr_miss_rate::.cpu.data     0.891156                       # mshr miss rate for ReadExReq accesses
system.l2.ReadExReq_mshr_miss_rate::total     0.891156                       # mshr miss rate for ReadExReq accesses
system.l2.ReadExReq_avg_mshr_miss_latency::.cpu.data 71919.849237                       # average ReadExReq mshr miss latency
system.l2.ReadExReq_avg_mshr_miss_latency::total 71919.849237                       # average ReadExReq mshr miss latency
system.l2.ReadCleanReq_hits::.cpu.inst          78473                       # number of ReadCleanReq hits
system.l2.ReadCleanReq_hits::.cpu.icache.prefetcher       300432                       # number of ReadCleanReq hits
system.l2.ReadCleanReq_hits::total             378905                       # number of ReadCleanReq hits
system.l2.ReadCleanReq_misses::.cpu.inst         2097                       # number of ReadCleanReq misses
system.l2.ReadCleanReq_misses::total             2097                       # number of ReadCleanReq misses
system.l2.ReadCleanReq_miss_latency::.cpu.inst    163559500                       # number of ReadCleanReq miss cycles
system.l2.ReadCleanReq_miss_latency::total    163559500                       # number of ReadCleanReq miss cycles
[...]
system.cpu.dcache.overall_miss_latency::.cpu.data    386337999                       # number of overall miss cycles
system.cpu.dcache.overall_miss_latency::total    386337999                       # number of overall miss cycles
system.cpu.dcache.demand_accesses::.cpu.data      2992382                       # number of demand (read+write) accesses
system.cpu.dcache.demand_accesses::total      2992382                       # number of demand (read+write) accesses
system.cpu.dcache.overall_accesses::.cpu.data      3003904                       # number of overall (read+write) accesses
system.cpu.dcache.overall_accesses::total      3003904                       # number of overall (read+write) accesses
system.cpu.dcache.demand_miss_rate::.cpu.data     0.002119                       # miss rate for demand accesses
system.cpu.dcache.demand_miss_rate::total     0.002119                       # miss rate for demand accesses
system.cpu.dcache.overall_miss_rate::.cpu.data     0.002119                       # miss rate for overall accesses
system.cpu.dcache.overall_miss_rate::total     0.002119                       # miss rate for overall accesses
system.cpu.dcache.demand_avg_miss_latency::.cpu.data 60926.982968                       # average overall miss latency
system.cpu.dcache.demand_avg_miss_latency::total 60926.982968                       # average overall miss latency
system.cpu.dcache.overall_avg_miss_latency::.cpu.data 60687.715834                       # average overall miss latency
system.cpu.dcache.overall_avg_miss_latency::total 60687.715834                       # average overall miss latency
system.cpu.dcache.blocked_cycles::no_mshrs           15                       # number of cycles access was blocked
system.cpu.dcache.blocked_cycles::no_targets          391                       # number of cycles access was blocked
system.cpu.dcache.blocked::no_mshrs                 2                       # number of cycles access was blocked
system.cpu.dcache.blocked::no_targets               5                       # number of cycles access was blocked
system.cpu.dcache.avg_blocked_cycles::no_mshrs     7.500000                       # average number of cycles each access was blocked
system.cpu.dcache.avg_blocked_cycles::no_targets    78.200000                       # average number of cycles each access was blocked
system.cpu.dcache.writebacks::.writebacks          634                       # number of writebacks
system.cpu.dcache.writebacks::total               634                       # number of writebacks
system.cpu.dcache.demand_mshr_hits::.cpu.data         4341                       # number of demand (read+write) MSHR hits
system.cpu.dcache.demand_mshr_hits::total         4341                       # number of demand (read+write) MSHR hits
system.cpu.dcache.overall_mshr_hits::.cpu.data         4341                       # number of overall MSHR hits
system.cpu.dcache.overall_mshr_hits::total         4341                       # number of overall MSHR hits
system.cpu.dcache.demand_mshr_misses::.cpu.data         2000                       # number of demand (read+write) MSHR misses
system.cpu.dcache.demand_mshr_misses::total         2000                       # number of demand (read+write) MSHR misses
system.cpu.dcache.overall_mshr_misses::.cpu.data         2023                       # number of overall MSHR misses
system.cpu.dcache.overall_mshr_misses::total         2023                       # number of overall MSHR misses
system.cpu.dcache.demand_mshr_miss_latency::.cpu.data    128895999                       # number of demand (read+write) MSHR miss cycles
system.cpu.dcache.demand_mshr_miss_latency::total    128895999                       # number of demand (read+write) MSHR miss cycles
system.cpu.dcache.overall_mshr_miss_latency::.cpu.data    130965499                       # number of overall MSHR miss cycles
system.cpu.dcache.overall_mshr_miss_latency::total    130965499                       # number of overall MSHR miss cycles
system.cpu.dcache.demand_mshr_miss_rate::.cpu.data     0.000668                       # mshr miss rate for demand accesses
system.cpu.dcache.demand_mshr_miss_rate::total     0.000668                       # mshr miss rate for demand accesses
system.cpu.dcache.overall_mshr_miss_rate::.cpu.data     0.000673                       # mshr miss rate for overall accesses
system.cpu.dcache.overall_mshr_miss_rate::total     0.000673                       # mshr miss rate for overall accesses
system.cpu.dcache.demand_avg_mshr_miss_latency::.cpu.data 64447.999500                       # average overall mshr miss latency
system.cpu.dcache.demand_avg_mshr_miss_latency::total 64447.999500                       # average overall mshr miss latency
system.cpu.dcache.overall_avg_mshr_miss_latency::.cpu.data 64738.259516                       # average overall mshr miss latency
system.cpu.dcache.overall_avg_mshr_miss_latency::total 64738.259516                       # average overall mshr miss latency
system.cpu.dcache.replacements                   1048                       # number of replacements
system.cpu.dcache.ReadReq_hits::.cpu.data      1793499                       # number of ReadReq hits
system.cpu.dcache.ReadReq_hits::total         1793499                       # number of ReadReq hits
system.cpu.dcache.ReadReq_misses::.cpu.data         2589                       # number of ReadReq misses
system.cpu.dcache.ReadReq_misses::total          2589                       # number of ReadReq misses
system.cpu.dcache.ReadReq_miss_latency::.cpu.data    151572000                       # number of ReadReq miss cycles
system.cpu.dcache.ReadReq_miss_latency::total    151572000                       # number of ReadReq miss cycles
system.cpu.dcache.ReadReq_accesses::.cpu.data      1796088                       # number of ReadReq accesses(hits+misses)
system.cpu.dcache.ReadReq_accesses::total      1796088                       # number of ReadReq accesses(hits+misses)
system.cpu.dcache.ReadReq_miss_rate::.cpu.data     0.001441                       # miss rate for ReadReq accesses
system.cpu.dcache.ReadReq_miss_rate::total     0.001441                       # miss rate for ReadReq accesses
system.cpu.dcache.ReadReq_avg_miss_latency::.cpu.data 58544.611819                       # average ReadReq miss latency
system.cpu.dcache.ReadReq_avg_miss_latency::total 58544.611819                       # average ReadReq miss latency
system.cpu.dcache.ReadReq_mshr_hits::.cpu.data         1346                       # number of ReadReq MSHR hits
system.cpu.dcache.ReadReq_mshr_hits::total         1346                       # number of ReadReq MSHR hits
system.cpu.dcache.ReadReq_mshr_misses::.cpu.data         1243                       # number of ReadReq MSHR misses
system.cpu.dcache.ReadReq_mshr_misses::total         1243                       # number of ReadReq MSHR misses
system.cpu.dcache.ReadReq_mshr_miss_latency::.cpu.data     78793000                       # number of ReadReq MSHR miss cycles
system.cpu.dcache.ReadReq_mshr_miss_latency::total     78793000                       # number of ReadReq MSHR miss cycles
system.cpu.dcache.ReadReq_mshr_miss_rate::.cpu.data     0.000692                       # mshr miss rate for ReadReq accesses
system.cpu.dcache.ReadReq_mshr_miss_rate::total     0.000692                       # mshr miss rate for ReadReq accesses
system.cpu.dcache.ReadReq_avg_mshr_miss_latency::.cpu.data 63389.380531                       # average ReadReq mshr miss latency
system.cpu.dcache.ReadReq_avg_mshr_miss_latency::total 63389.380531                       # average ReadReq mshr miss latency
system.cpu.dcache.WriteReq_hits::.cpu.data      1191505                       # number of WriteReq hits
system.cpu.dcache.WriteReq_hits::total        1191505                       # number of WriteReq hits
system.cpu.dcache.WriteReq_misses::.cpu.data         3614                       # number of WriteReq misses
system.cpu.dcache.WriteReq_misses::total         3614                       # number of WriteReq misses
system.cpu.dcache.WriteReq_miss_latency::.cpu.data    230082500                       # number of WriteReq miss cycles
system.cpu.dcache.WriteReq_miss_latency::total    230082500                       # number of WriteReq miss cycles
system.cpu.dcache.WriteReq_accesses::.cpu.data      1195119                       # number of WriteReq accesses(hits+misses)
system.cpu.dcache.WriteReq_accesses::total      1195119                       # number of WriteReq accesses(hits+misses)
system.cpu.dcache.WriteReq_miss_rate::.cpu.data     0.003024                       # miss rate for WriteReq accesses
system.cpu.dcache.WriteReq_miss_rate::total     0.003024                       # miss rate for WriteReq accesses
system.cpu.dcache.WriteReq_avg_miss_latency::.cpu.data 63664.222468                       # average WriteReq miss latency
system.cpu.dcache.WriteReq_avg_miss_latency::total 63664.222468                       # average WriteReq miss latency
system.cpu.dcache.WriteReq_mshr_hits::.cpu.data         2995                       # number of WriteReq MSHR hits
system.cpu.dcache.WriteReq_mshr_hits::total         2995                       # number of WriteReq MSHR hits
system.cpu.dcache.WriteReq_mshr_misses::.cpu.data          619                       # number of WriteReq MSHR misses
system.cpu.dcache.WriteReq_mshr_misses::total          619                       # number of WriteReq MSHR misses
system.cpu.dcache.WriteReq_mshr_miss_latency::.cpu.data     45557500                       # number of WriteReq MSHR miss cycles
system.cpu.dcache.WriteReq_mshr_miss_latency::total     45557500                       # number of WriteReq MSHR miss cycles
system.cpu.dcache.WriteReq_mshr_miss_rate::.cpu.data     0.000518                       # mshr miss rate for WriteReq accesses
system.cpu.dcache.WriteReq_mshr_miss_rate::total     0.000518                       # mshr miss rate for WriteReq accesses
system.cpu.dcache.WriteReq_avg_mshr_miss_latency::.cpu.data 73598.546042                       # average WriteReq mshr miss latency
system.cpu.dcache.WriteReq_avg_mshr_miss_latency::total 73598.546042                       # average WriteReq mshr miss latency
system.cpu.dcache.SoftPFReq_hits::.cpu.data        11497                       # number of SoftPFReq hits
system.cpu.dcache.SoftPFReq_hits::total         11497                       # number of SoftPFReq hits
system.cpu.dcache.SoftPFReq_misses::.cpu.data           25                       # number of SoftPFReq misses
system.cpu.dcache.SoftPFReq_misses::total           25                       # number of SoftPFReq misses
system.cpu.dcache.SoftPFReq_accesses::.cpu.data        11522                       # number of SoftPFReq accesses(hits+misses)
system.cpu.dcache.SoftPFReq_accesses::total        11522                       # number of SoftPFReq accesses(hits+misses)
system.cpu.dcache.SoftPFReq_miss_rate::.cpu.data     0.002170                       # miss rate for SoftPFReq accesses
system.cpu.dcache.SoftPFReq_miss_rate::total     0.002170                       # miss rate for SoftPFReq accesses
system.cpu.dcache.SoftPFReq_mshr_misses::.cpu.data           23                       # number of SoftPFReq MSHR misses
system.cpu.dcache.SoftPFReq_mshr_misses::total           23                       # number of SoftPFReq MSHR misses
system.cpu.dcache.SoftPFReq_mshr_miss_latency::.cpu.data      2069500                       # number of SoftPFReq MSHR miss cycles
system.cpu.dcache.SoftPFReq_mshr_miss_latency::total      2069500                       # number of SoftPFReq MSHR miss cycles
system.cpu.dcache.SoftPFReq_mshr_miss_rate::.cpu.data     0.001996                       # mshr miss rate for SoftPFReq accesses
system.cpu.dcache.SoftPFReq_mshr_miss_rate::total     0.001996                       # mshr miss rate for SoftPFReq accesses
system.cpu.dcache.SoftPFReq_avg_mshr_miss_latency::.cpu.data 89978.260870                       # average SoftPFReq mshr miss latency
system.cpu.dcache.SoftPFReq_avg_mshr_miss_latency::total 89978.260870                       # average SoftPFReq mshr miss latency
system.cpu.dcache.WriteLineReq_hits::.cpu.data         1037                       # number of WriteLineReq hits
system.cpu.dcache.WriteLineReq_hits::total         1037                       # number of WriteLineReq hits
system.cpu.dcache.WriteLineReq_misses::.cpu.data          138                       # number of WriteLineReq misses
system.cpu.dcache.WriteLineReq_misses::total          138                       # number of WriteLineReq misses
system.cpu.dcache.WriteLineReq_miss_latency::.cpu.data      4683499                       # number of WriteLineReq miss cycles
system.cpu.dcache.WriteLineReq_miss_latency::total      4683499                       # number of WriteLineReq miss cycles
system.cpu.dcache.WriteLineReq_accesses::.cpu.data         1175                       # number of WriteLineReq accesses(hits+misses)
system.cpu.dcache.WriteLineReq_accesses::total         1175                       # number of WriteLineReq accesses(hits+misses)
system.cpu.dcache.WriteLineReq_miss_rate::.cpu.data     0.117447                       # miss rate for WriteLineReq accesses
system.cpu.dcache.WriteLineReq_miss_rate::total     0.117447                       # miss rate for WriteLineReq accesses
system.cpu.dcache.WriteLineReq_avg_miss_latency::.cpu.data 33938.398551                       # average WriteLineReq miss latency
system.cpu.dcache.WriteLineReq_avg_miss_latency::total 33938.398551                       # average WriteLineReq miss latency
system.cpu.dcache.WriteLineReq_mshr_misses::.cpu.data          138                       # number of WriteLineReq MSHR misses
system.cpu.dcache.WriteLineReq_mshr_misses::total          138                       # number of WriteLineReq MSHR misses
system.cpu.dcache.WriteLineReq_mshr_miss_latency::.cpu.data      4545499                       # number of WriteLineReq MSHR miss cycles
system.cpu.dcache.WriteLineReq_mshr_miss_latency::total      4545499                       # number of WriteLineReq MSHR miss cycles
system.cpu.dcache.WriteLineReq_mshr_miss_rate::.cpu.data     0.117447                       # mshr miss rate for WriteLineReq accesses
system.cpu.dcache.WriteLineReq_mshr_miss_rate::total     0.117447                       # mshr miss rate for WriteLineReq accesses
system.cpu.dcache.WriteLineReq_avg_mshr_miss_latency::.cpu.data 32938.398551                       # average WriteLineReq mshr miss latency
system.cpu.dcache.WriteLineReq_avg_mshr_miss_latency::total 32938.398551                       # average WriteLineReq mshr miss latency
system.cpu.dcache.LoadLockedReq_hits::.cpu.data         5829                       # number of LoadLockedReq hits
system.cpu.dcache.LoadLockedReq_hits::total         5829                       # number of LoadLockedReq hits
system.cpu.dcache.LoadLockedReq_misses::.cpu.data            2                       # number of LoadLockedReq misses
system.cpu.dcache.LoadLockedReq_misses::total            2                       # number of LoadLockedReq misses
system.cpu.dcache.LoadLockedReq_miss_latency::.cpu.data       448500                       # number of LoadLockedReq miss cycles
system.cpu.dcache.LoadLockedReq_miss_latency::total       448500                       # number of LoadLockedReq miss cycles
system.cpu.dcache.LoadLockedReq_accesses::.cpu.data         5831                       # number of LoadLockedReq accesses(hits+misses)
system.cpu.dcache.LoadLockedReq_accesses::total         5831                       # number of LoadLockedReq accesses(hits+misses)
system.cpu.dcache.LoadLockedReq_miss_rate::.cpu.data     0.000343                       # miss rate for LoadLockedReq accesses
system.cpu.dcache.LoadLockedReq_miss_rate::total     0.000343                       # miss rate for LoadLockedReq accesses
system.cpu.dcache.LoadLockedReq_avg_miss_latency::.cpu.data       224250                       # average LoadLockedReq miss latency
system.cpu.dcache.LoadLockedReq_avg_miss_latency::total       224250                       # average LoadLockedReq miss latency
system.cpu.dcache.LoadLockedReq_mshr_misses::.cpu.data            2                       # number of LoadLockedReq MSHR misses
system.cpu.dcache.LoadLockedReq_mshr_misses::total            2                       # number of LoadLockedReq MSHR misses
system.cpu.dcache.LoadLockedReq_mshr_miss_latency::.cpu.data       446500                       # number of LoadLockedReq MSHR miss cycles
system.cpu.dcache.LoadLockedReq_mshr_miss_latency::total       446500                       # number of LoadLockedReq MSHR miss cycles
system.cpu.dcache.LoadLockedReq_mshr_miss_rate::.cpu.data     0.000343                       # mshr miss rate for LoadLockedReq accesses
system.cpu.dcache.LoadLockedReq_mshr_miss_rate::total     0.000343                       # mshr miss rate for LoadLockedReq accesses
system.cpu.dcache.LoadLockedReq_avg_mshr_miss_latency::.cpu.data       223250                       # average LoadLockedReq mshr miss latency
system.cpu.dcache.LoadLockedReq_avg_mshr_miss_latency::total       223250                       # average LoadLockedReq mshr miss latency
system.cpu.dcache.StoreCondReq_hits::.cpu.data         5240                       # number of StoreCondReq hits
system.cpu.dcache.StoreCondReq_hits::total         5240                       # number of StoreCondReq hits
system.cpu.dcache.StoreCondReq_accesses::.cpu.data         5240                       # number of StoreCondReq accesses(hits+misses)
system.cpu.dcache.StoreCondReq_accesses::total         5240                       # number of StoreCondReq accesses(hits+misses)
system.cpu.dcache.power_state.pwrStateResidencyTicks::UNDEFINED   3776947500                       # Cumulative time (in ticks) in various power states
system.cpu.dcache.tags.tagsinuse           928.997164                       # Cycle average of tags in use
system.cpu.dcache.tags.total_refs             3010677                       # Total number of references to valid blocks.
system.cpu.dcache.tags.sampled_refs              2015                       # Sample count of references to valid blocks.
system.cpu.dcache.tags.avg_refs           1494.132506                       # Average number of references to valid blocks.
system.cpu.dcache.tags.warmup_cycle            176500                       # Cycle when the warmup percentage was hit.
system.cpu.dcache.tags.occ_blocks::.cpu.data   928.997164                       # Average occupied blocks per requestor
system.cpu.dcache.tags.occ_percent::.cpu.data     0.907224                       # Average percentage of cache occupancy
system.cpu.dcache.tags.occ_percent::total     0.907224                       # Average percentage of cache occupancy
system.cpu.dcache.tags.occ_task_id_blocks::1024          967                       # Occupied blocks per task id
system.cpu.dcache.tags.age_task_id_blocks_1024::1            3                       # Occupied blocks per task id
system.cpu.dcache.tags.age_task_id_blocks_1024::2           12                       # Occupied blocks per task id
system.cpu.dcache.tags.age_task_id_blocks_1024::3          952                       # Occupied blocks per task id
system.cpu.dcache.tags.occ_task_id_percent::1024     0.944336                       # Percentage of cache occupancy per task id
system.cpu.dcache.tags.tag_accesses           6031965                       # Number of tag accesses
system.cpu.dcache.tags.data_accesses          6031965                       # Number of data accesses
system.cpu.dcache.tags.power_state.pwrStateResidencyTicks::UNDEFINED   3776947500                       # Cumulative time (in ticks) in various power states
system.cpu.power_state.pwrStateResidencyTicks::ON   3776947500                       # Cumulative time (in ticks) in various power states

---------- End Simulation Statistics   ----------
