
---------- Begin Simulation Statistics ----------
final_tick                                 9102247500                       # Number of ticks from beginning of simulation (restored from checkpoints and never reset)
host_inst_rate                                  66478                       # Simulator instruction rate (inst/s)
host_mem_usage                                 869092                       # Number of bytes of host memory used
host_op_rate                                    75637                       # Simulator op (including micro ops) rate (op/s)
host_seconds                                   150.42                       # Real time elapsed on the host
host_tick_rate                               60510251                       # Simulator tick rate (ticks/s)
sim_freq                                 1000000000000                       # Frequency of simulated ticks
sim_insts                                    10000003                       # Number of instructions simulated
sim_ops                                      11377756                       # Number of ops (including micro ops) simulated
sim_seconds                                  0.009102                       # Number of seconds simulated
sim_ticks                                  9102247500                       # Number of ticks simulated
system.cpu.branchPred.BTBCorrect                    0                       # Number of correct BTB predictions (this stat may not work properly.
system.cpu.branchPred.BTBHitPct             99.844354                       # BTB Hit Percentage
system.cpu.branchPred.BTBHits                  997506                       # Number of BTB hits
system.cpu.branchPred.BTBLookups               999061                       # Number of BTB lookups
system.cpu.branchPred.RASInCorrect                  2                       # Number of incorrect RAS predictions.
system.cpu.branchPred.condIncorrect             33603                       # Number of conditional branches incorrect
system.cpu.branchPred.condPredicted           1436648                       # Number of conditional branches predicted
system.cpu.branchPred.indirectHits                 71                       # Number of indirect target hits.
system.cpu.branchPred.indirectLookups             287                       # Number of indirect predictor lookups.
system.cpu.branchPred.indirectMisses              216                       # Number of indirect misses.
system.cpu.branchPred.lookups                 1779305                       # Number of BP lookups
system.cpu.branchPred.usedRAS                  145702                       # Number of times the RAS was used to get a target.
system.cpu.branchPredindirectMispredicted           91                       # Number of mispredicted indirect branches.
system.cpu.cc_regfile_reads                   2966691                       # number of cc regfile reads
system.cpu.cc_regfile_writes                  2976091                       # number of cc regfile writes
system.cpu.commit.amos                              0                       # Number of atomic instructions committed
system.cpu.commit.branchMispredicts             33171                       # The number of times a branch was mispredicted
system.cpu.commit.branches                    1493731                       # Number of branches committed
system.cpu.commit.bw_lim_events                672630                       # number cycles where commit BW limit reached
system.cpu.commit.commitNonSpecStalls             162                       # The number of times commit has been forced to stall to communicate backwards
system.cpu.commit.commitSquashedInsts         1511180                       # The number of squashed insts skipped by commit
system.cpu.commit.committedInsts             10030359                       # Number of instructions committed
system.cpu.commit.committedOps               11408112                       # Number of ops (including micro ops) committed
system.cpu.commit.committed_per_cycle::samples     16173588                       # Number of insts commited each cycle
system.cpu.commit.committed_per_cycle::mean     0.705354                       # Number of insts commited each cycle
system.cpu.commit.committed_per_cycle::stdev     1.850817                       # Number of insts commited each cycle
system.cpu.commit.committed_per_cycle::underflows            0      0.00%      0.00% # Number of insts commited each cycle
system.cpu.commit.committed_per_cycle::0     12760901     78.90%     78.90% # Number of insts commited each cycle
system.cpu.commit.committed_per_cycle::1      1411517      8.73%     87.63% # Number of insts commited each cycle
system.cpu.commit.committed_per_cycle::2       455470      2.82%     90.44% # Number of insts commited each cycle
system.cpu.commit.committed_per_cycle::3       321650      1.99%     92.43% # Number of insts commited each cycle
system.cpu.commit.committed_per_cycle::4       266754      1.65%     94.08% # Number of insts commited each cycle
system.cpu.commit.committed_per_cycle::5       108328      0.67%     94.75% # Number of insts commited each cycle
system.cpu.commit.committed_per_cycle::6       103357      0.64%     95.39% # Number of insts commited each cycle
system.cpu.commit.committed_per_cycle::7        72981      0.45%     95.84% # Number of insts commited each cycle
system.cpu.commit.committed_per_cycle::8       672630      4.16%    100.00% # Number of insts commited each cycle
system.cpu.commit.committed_per_cycle::overflows            0      0.00%    100.00% # Number of insts commited each cycle
system.cpu.commit.committed_per_cycle::min_value            0                       # Number of insts commited each cycle
system.cpu.commit.committed_per_cycle::max_value            8                       # Number of insts commited each cycle
system.cpu.commit.committed_per_cycle::total     16173588                       # Number of insts commited each cycle
system.cpu.commit.fp_insts                          0                       # Number of committed floating point instructions.
system.cpu.commit.function_calls               109864                       # Number of function calls committed.
system.cpu.commit.int_insts                  10459673                       # Number of committed integer instructions.
system.cpu.commit.loads                       2765062                       # Number of loads committed
system.cpu.commit.membars                          71                       # Number of memory barriers committed
system.cpu.commit.op_class_0::No_OpClass            4      0.00%      0.00% # Class of committed instruction
system.cpu.commit.op_class_0::IntAlu          6770580     59.35%     59.35% # Class of committed instruction
system.cpu.commit.op_class_0::IntMult          207714      1.82%     61.17% # Class of committed instruction
system.cpu.commit.op_class_0::IntDiv                3      0.00%     61.17% # Class of committed instruction
system.cpu.commit.op_class_0::FloatAdd          20205      0.18%     61.35% # Class of committed instruction
system.cpu.commit.op_class_0::FloatCmp              1      0.00%     61.35% # Class of committed instruction
system.cpu.commit.op_class_0::FloatCvt          37098      0.33%     61.67% # Class of committed instruction
system.cpu.commit.op_class_0::FloatMult            10      0.00%     61.67% # Class of committed instruction
system.cpu.commit.op_class_0::FloatMultAcc           17      0.00%     61.67% # Class of committed instruction
system.cpu.commit.op_class_0::FloatDiv           3316      0.03%     61.70% # Class of committed instruction
system.cpu.commit.op_class_0::FloatMisc         20209      0.18%     61.88% # Class of committed instruction
system.cpu.commit.op_class_0::FloatSqrt             0      0.00%     61.88% # Class of committed instruction
system.cpu.commit.op_class_0::SimdAdd              18      0.00%     61.88% # Class of committed instruction
system.cpu.commit.op_class_0::SimdAddAcc            0      0.00%     61.88% # Class of committed instruction
system.cpu.commit.op_class_0::SimdAlu              18      0.00%     61.88% # Class of committed instruction
system.cpu.commit.op_class_0::SimdCmp              16      0.00%     61.88% # Class of committed instruction
system.cpu.commit.op_class_0::SimdCvt               4      0.00%     61.88% # Class of committed instruction
system.cpu.commit.op_class_0::SimdMisc             16      0.00%     61.88% # Class of committed instruction
system.cpu.commit.op_class_0::SimdMult              0      0.00%     61.88% # Class of committed instruction
system.cpu.commit.op_class_0::SimdMultAcc            0      0.00%     61.88% # Class of committed instruction
system.cpu.commit.op_class_0::SimdShift             0      0.00%     61.88% # Class of committed instruction
system.cpu.commit.op_class_0::SimdShiftAcc            0      0.00%     61.88% # Class of committed instruction
system.cpu.commit.op_class_0::SimdDiv               0      0.00%     61.88% # Class of committed instruction
system.cpu.commit.op_class_0::SimdSqrt              0      0.00%     61.88% # Class of committed instruction
system.cpu.commit.op_class_0::SimdFloatAdd            0      0.00%     61.88% # Class of committed instruction
system.cpu.commit.op_class_0::SimdFloatAlu            0      0.00%     61.88% # Class of committed instruction
system.cpu.commit.op_class_0::SimdFloatCmp            0      0.00%     61.88% # Class of committed instruction
system.cpu.commit.op_class_0::SimdFloatCvt            0      0.00%     61.88% # Class of committed instruction
system.cpu.commit.op_class_0::SimdFloatDiv            0      0.00%     61.88% # Class of committed instruction
system.cpu.commit.op_class_0::SimdFloatMisc            0      0.00%     61.88% # Class of committed instruction
system.cpu.commit.op_class_0::SimdFloatMult            0      0.00%     61.88% # Class of committed instruction
system.cpu.commit.op_class_0::SimdFloatMultAcc            0      0.00%     61.88% # Class of committed instruction
system.cpu.commit.op_class_0::SimdFloatSqrt            0      0.00%     61.88% # Class of committed instruction
system.cpu.commit.op_class_0::SimdReduceAdd            0      0.00%     61.88% # Class of committed instruction
system.cpu.commit.op_class_0::SimdReduceAlu            0      0.00%     61.88% # Class of committed instruction
system.cpu.commit.op_class_0::SimdReduceCmp            0      0.00%     61.88% # Class of committed instruction
system.cpu.commit.op_class_0::SimdFloatReduceAdd            0      0.00%     61.88% # Class of committed instruction
system.cpu.commit.op_class_0::SimdFloatReduceCmp            0      0.00%     61.88% # Class of committed instruction
system.cpu.commit.op_class_0::SimdAes               0      0.00%     61.88% # Class of committed instruction
system.cpu.commit.op_class_0::SimdAesMix            0      0.00%     61.88% # Class of committed instruction
system.cpu.commit.op_class_0::SimdSha1Hash            0      0.00%     61.88% # Class of committed instruction
system.cpu.commit.op_class_0::SimdSha1Hash2            0      0.00%     61.88% # Class of committed instruction
system.cpu.commit.op_class_0::SimdSha256Hash            0      0.00%     61.88% # Class of committed instruction
system.cpu.commit.op_class_0::SimdSha256Hash2            0      0.00%     61.88% # Class of committed instruction
system.cpu.commit.op_class_0::SimdShaSigma2            0      0.00%     61.88% # Class of committed instruction
system.cpu.commit.op_class_0::SimdShaSigma3            0      0.00%     61.88% # Class of committed instruction
system.cpu.commit.op_class_0::SimdPredAlu            0      0.00%     61.88% # Class of committed instruction
system.cpu.commit.op_class_0::MemRead         2765062     24.24%     86.12% # Class of committed instruction
system.cpu.commit.op_class_0::MemWrite        1583821     13.88%    100.00% # Class of committed instruction
system.cpu.commit.op_class_0::FloatMemRead            0      0.00%    100.00% # Class of committed instruction
system.cpu.commit.op_class_0::FloatMemWrite            0      0.00%    100.00% # Class of committed instruction
system.cpu.commit.op_class_0::IprAccess             0      0.00%    100.00% # Class of committed instruction
system.cpu.commit.op_class_0::InstPrefetch            0      0.00%    100.00% # Class of committed instruction
system.cpu.commit.op_class_0::total          11408112                       # Class of committed instruction
system.cpu.commit.refs                        4348883                       # Number of memory references committed
system.cpu.commit.swp_count                         0                       # Number of s/w prefetches committed
system.cpu.commit.vec_insts                     81296                       # Number of committed Vector instructions.
system.cpu.committedInsts                    10000003                       # Number of Instructions Simulated
system.cpu.committedOps                      11377756                       # Number of Ops (including micro ops) Simulated
system.cpu.cpi                               1.820449                       # CPI: Cycles Per Instruction
system.cpu.cpi_total                         1.820449                       # CPI: Total CPI of All Threads
system.cpu.decode.BlockedCycles               4308337                       # Number of cycles decode is blocked
system.cpu.decode.BranchMispred                   441                       # Number of times decode detected a branch misprediction
system.cpu.decode.BranchResolved               976882                       # Number of times decode resolved a branch
system.cpu.decode.DecodedInsts               13177769                       # Number of instructions handled by decode
system.cpu.decode.IdleCycles                  9777750                       # Number of cycles decode is idle
system.cpu.decode.RunCycles                   2066091                       # Number of cycles decode is running
system.cpu.decode.SquashCycles                  36008                       # Number of cycles decode is squashing
system.cpu.decode.SquashedInsts                  1494                       # Number of squashed instructions handled by decode
system.cpu.decode.UnblockCycles                192599                       # Number of cycles decode is unblocking
system.cpu.dtb.accesses                             0                       # DTB accesses
system.cpu.dtb.align_faults                         0                       # Number of TLB faults due to alignment restrictions
system.cpu.dtb.domain_faults                        0                       # Number of TLB faults due to domain restrictions
system.cpu.dtb.flush_entries                        0                       # Number of entries that have been flushed from TLB
system.cpu.dtb.flush_tlb                            2                       # Number of times complete TLB was flushed
system.cpu.dtb.flush_tlb_asid                       0                       # Number of times TLB was flushed by ASID
system.cpu.dtb.flush_tlb_mva                        0                       # Number of times TLB was flushed by MVA
system.cpu.dtb.flush_tlb_mva_asid                   0                       # Number of times TLB was flushed by MVA & ASID
system.cpu.dtb.hits                                 0                       # DTB hits
system.cpu.dtb.inst_accesses                        0                       # ITB inst accesses
system.cpu.dtb.inst_hits                            0                       # ITB inst hits
system.cpu.dtb.inst_misses                          0                       # ITB inst misses
system.cpu.dtb.misses                               0                       # DTB misses
system.cpu.dtb.perms_faults                         0                       # Number of TLB faults due to permissions restrictions
system.cpu.dtb.prefetch_faults                      0                       # Number of TLB faults due to prefetch
system.cpu.dtb.read_accesses                        0                       # DTB read accesses
system.cpu.dtb.read_hits                            0                       # DTB read hits
system.cpu.dtb.read_misses                          0                       # DTB read misses
system.cpu.dtb.stage2_mmu.stage2_tlb.accesses            0                       # DTB accesses
system.cpu.dtb.stage2_mmu.stage2_tlb.align_faults            0                       # Number of TLB faults due to alignment restrictions
system.cpu.dtb.stage2_mmu.stage2_tlb.domain_faults            0                       # Number of TLB faults due to domain restrictions
system.cpu.dtb.stage2_mmu.stage2_tlb.flush_entries            0                       # Number of entries that have been flushed from TLB
system.cpu.dtb.stage2_mmu.stage2_tlb.flush_tlb            0                       # Number of times complete TLB was flushed
system.cpu.dtb.stage2_mmu.stage2_tlb.flush_tlb_asid            0                       # Number of times TLB was flushed by ASID
system.cpu.dtb.stage2_mmu.stage2_tlb.flush_tlb_mva            0                       # Number of times TLB was flushed by MVA
system.cpu.dtb.stage2_mmu.stage2_tlb.flush_tlb_mva_asid            0                       # Number of times TLB was flushed by MVA & ASID
system.cpu.dtb.stage2_mmu.stage2_tlb.hits            0                       # DTB hits
system.cpu.dtb.stage2_mmu.stage2_tlb.inst_accesses            0                       # ITB inst accesses
system.cpu.dtb.stage2_mmu.stage2_tlb.inst_hits            0                       # ITB inst hits
system.cpu.dtb.stage2_mmu.stage2_tlb.inst_misses            0                       # ITB inst misses
system.cpu.dtb.stage2_mmu.stage2_tlb.misses            0                       # DTB misses
system.cpu.dtb.stage2_mmu.stage2_tlb.perms_faults            0                       # Number of TLB faults due to permissions restrictions
system.cpu.dtb.stage2_mmu.stage2_tlb.prefetch_faults            0                       # Number of TLB faults due to prefetch
system.cpu.dtb.stage2_mmu.stage2_tlb.read_accesses            0                       # DTB read accesses
system.cpu.dtb.stage2_mmu.stage2_tlb.read_hits            0                       # DTB read hits
system.cpu.dtb.stage2_mmu.stage2_tlb.read_misses            0                       # DTB read misses
system.cpu.dtb.stage2_mmu.stage2_tlb.walker.walkRequestOrigin_Requested::Data            0                       # Table walker requests started/completed, data/inst
system.cpu.dtb.stage2_mmu.stage2_tlb.walker.walkRequestOrigin_Requested::Inst            0                       # Table walker requests started/completed, data/inst
system.cpu.dtb.stage2_mmu.stage2_tlb.walker.walkRequestOrigin_Requested::total            0                       # Table walker requests started/completed, data/inst
system.cpu.dtb.stage2_mmu.stage2_tlb.walker.walkRequestOrigin_Completed::Data            0                       # Table walker requests started/completed, data/inst
system.cpu.dtb.stage2_mmu.stage2_tlb.walker.walkRequestOrigin_Completed::Inst            0                       # Table walker requests started/completed, data/inst
system.cpu.dtb.stage2_mmu.stage2_tlb.walker.walkRequestOrigin_Completed::total            0                       # Table walker requests started/completed, data/inst
system.cpu.dtb.stage2_mmu.stage2_tlb.walker.walkRequestOrigin::total            0                       # Table walker requests started/completed, data/inst
system.cpu.dtb.stage2_mmu.stage2_tlb.walker.walks            0                       # Table walker walks requested
system.cpu.dtb.stage2_mmu.stage2_tlb.write_accesses            0                       # DTB write accesses
system.cpu.dtb.stage2_mmu.stage2_tlb.write_hits            0                       # DTB write hits
system.cpu.dtb.stage2_mmu.stage2_tlb.write_misses            0                       # DTB write misses
system.cpu.dtb.walker.walkRequestOrigin_Requested::Data            0                       # Table walker requests started/completed, data/inst
system.cpu.dtb.walker.walkRequestOrigin_Requested::Inst            0                       # Table walker requests started/completed, data/inst
system.cpu.dtb.walker.walkRequestOrigin_Requested::total            0                       # Table walker requests started/completed, data/inst
system.cpu.dtb.walker.walkRequestOrigin_Completed::Data            0                       # Table walker requests started/completed, data/inst
system.cpu.dtb.walker.walkRequestOrigin_Completed::Inst            0                       # Table walker requests started/completed, data/inst
system.cpu.dtb.walker.walkRequestOrigin_Completed::total            0                       # Table walker requests started/completed, data/inst
system.cpu.dtb.walker.walkRequestOrigin::total            0                       # Table walker requests started/completed, data/inst
system.cpu.dtb.walker.walks                         0                       # Table walker walks requested
system.cpu.dtb.write_accesses                       0                       # DTB write accesses
system.cpu.dtb.write_hits                           0                       # DTB write hits
system.cpu.dtb.write_misses                         0                       # DTB write misses
system.cpu.fetch.Branches                     1779305                       # Number of branches that fetch encountered
system.cpu.fetch.CacheLines                   1117955                       # Number of cache lines fetched
system.cpu.fetch.Cycles                       5503746                       # Number of cycles fetch has run and was not squashing or blocked
system.cpu.fetch.IcacheSquashes                 21537                       # Number of outstanding Icache misses that were squashed
system.cpu.fetch.IcacheWaitRetryStallCycles          277                       # Number of stall cycles due to full MSHR
system.cpu.fetch.Insts                       11761958                       # Number of instructions fetch has processed
system.cpu.fetch.MiscStallCycles                   52                       # Number of cycles fetch has spent waiting on interrupts, or bad addresses, or out of MSHRs
system.cpu.fetch.SquashCycles                   72880                       # Number of cycles fetch has spent squashing
system.cpu.fetch.branchRate                  0.097740                       # Number of branch fetches per cycle
system.cpu.fetch.icacheStallCycles           10840270                       # Number of cycles fetch is stalled on an Icache miss
system.cpu.fetch.predictedBranches            1143279                       # Number of branches that fetch has predicted taken
system.cpu.fetch.rate                        0.646102                       # Number of inst fetches per cycle
system.cpu.fetch.rateDist::samples           16380785                       # Number of instructions fetched each cycle (Total)
system.cpu.fetch.rateDist::mean              0.816790                       # Number of instructions fetched each cycle (Total)
system.cpu.fetch.rateDist::stdev             2.181428                       # Number of instructions fetched each cycle (Total)
system.cpu.fetch.rateDist::underflows               0      0.00%      0.00% # Number of instructions fetched each cycle (Total)
system.cpu.fetch.rateDist::0                 13819391     84.36%     84.36% # Number of instructions fetched each cycle (Total)
system.cpu.fetch.rateDist::1                   222633      1.36%     85.72% # Number of instructions fetched each cycle (Total)
system.cpu.fetch.rateDist::2                   457234      2.79%     88.51% # Number of instructions fetched each cycle (Total)
system.cpu.fetch.rateDist::3                   248135      1.51%     90.03% # Number of instructions fetched each cycle (Total)
system.cpu.fetch.rateDist::4                   206406      1.26%     91.29% # Number of instructions fetched each cycle (Total)
system.cpu.fetch.rateDist::5                   155377      0.95%     92.24% # Number of instructions fetched each cycle (Total)
system.cpu.fetch.rateDist::6                    91091      0.56%     92.79% # Number of instructions fetched each cycle (Total)
system.cpu.fetch.rateDist::7                    95046      0.58%     93.37% # Number of instructions fetched each cycle (Total)
system.cpu.fetch.rateDist::8                  1085472      6.63%    100.00% # Number of instructions fetched each cycle (Total)
system.cpu.fetch.rateDist::overflows                0      0.00%    100.00% # Number of instructions fetched each cycle (Total)
system.cpu.fetch.rateDist::min_value                0                       # Number of instructions fetched each cycle (Total)
system.cpu.fetch.rateDist::max_value                8                       # Number of instructions fetched each cycle (Total)
system.cpu.fetch.rateDist::total             16380785                       # Number of instructions fetched each cycle (Total)
system.cpu.icache.prefetcher.num_hwpf_issued      1264349                       # number of hwpf issued
system.cpu.icache.prefetcher.pfBufferHit     43814575                       # number of redundant prefetches already in prefetch queue
system.cpu.icache.prefetcher.pfIdentified     47023352                       # number of prefetch candidates identified
system.cpu.icache.prefetcher.pfInCache              0                       # number of redundant prefetches already in cache/mshr dropped
system.cpu.icache.prefetcher.pfRemovedFull       650851                       # number of prefetches dropped due to prefetch queue size
system.cpu.icache.prefetcher.pfSpanPage     222369608                       # number of prefetches that crossed the page
system.cpu.idleCycles                         1823711                       # Total number of cycles that the CPU has spent unscheduled due to idling
system.cpu.iew.branchMispredicts                35173                       # Number of branch mispredicts detected at execute
system.cpu.iew.exec_branches                  1605337                       # Number of branches executed
system.cpu.iew.exec_nop                         35631                       # number of nop insts executed
system.cpu.iew.exec_rate                     0.684712                       # Inst execution rate
system.cpu.iew.exec_refs                      4845255                       # number of memory reference insts executed
system.cpu.iew.exec_stores                    1701901                       # Number of stores executed
system.cpu.iew.exec_swp                             0                       # number of swp insts executed
system.cpu.iew.iewBlockCycles                  440640                       # Number of cycles IEW is blocking
system.cpu.iew.iewDispLoadInsts               3148898                       # Number of dispatched load instructions
system.cpu.iew.iewDispNonSpecInsts                188                       # Number of dispatched non-speculative instructions
system.cpu.iew.iewDispSquashedInsts               876                       # Number of squashed instructions skipped by dispatch
system.cpu.iew.iewDispStoreInsts              1776269                       # Number of dispatched store instructions
system.cpu.iew.iewDispatchedInsts            12927944                       # Number of instructions dispatched to IQ
system.cpu.iew.iewExecLoadInsts               3143354                       # Number of load instructions executed
system.cpu.iew.iewExecSquashedInsts             48148                       # Number of squashed instructions skipped in execute
system.cpu.iew.iewExecutedInsts              12464829                       # Number of executed instructions
system.cpu.iew.iewIQFullEvents                   4894                       # Number of times the IQ has become full, causing a stall
system.cpu.iew.iewIdleCycles                        0                       # Number of cycles IEW is idle
system.cpu.iew.iewLSQFullEvents                562409                       # Number of times the LSQ has become full, causing a stall
system.cpu.iew.iewSquashCycles                  36008                       # Number of cycles IEW is squashing
system.cpu.iew.iewUnblockCycles                567557                       # Number of cycles IEW is unblocking
system.cpu.iew.lsq.thread0.blockedLoads             0                       # Number of blocked loads due to partial load-store forwarding
system.cpu.iew.lsq.thread0.cacheBlocked         61591                       # Number of times an access to memory failed due to the cache being blocked
system.cpu.iew.lsq.thread0.forwLoads            16002                       # Number of loads that had data forwarded from stores
system.cpu.iew.lsq.thread0.ignoredResponses           73                       # Number of memory responses ignored because the instruction is squashed
system.cpu.iew.lsq.thread0.invAddrLoads             0                       # Number of loads ignored due to an invalid address
system.cpu.iew.lsq.thread0.invAddrSwpfs             0                       # Number of software prefetches ignored due to an invalid address
system.cpu.iew.lsq.thread0.memOrderViolation          117                       # Number of memory ordering violations
system.cpu.iew.lsq.thread0.rescheduledLoads       135519                       # Number of loads that were rescheduled
system.cpu.iew.lsq.thread0.squashedLoads       383836                       # Number of loads squashed
system.cpu.iew.lsq.thread0.squashedStores       192448                       # Number of stores squashed
system.cpu.iew.memOrderViolationEvents            117                       # Number of memory order violations
system.cpu.iew.predictedNotTakenIncorrect        16617                       # Number of branches that were predicted not taken incorrectly
system.cpu.iew.predictedTakenIncorrect          18556                       # Number of branches that were predicted taken incorrectly
system.cpu.iew.wb_consumers                  11990798                       # num instructions consuming a value
system.cpu.iew.wb_count                      12220538                       # cumulative count of insts written-back
system.cpu.iew.wb_fanout                     0.612396                       # average fanout of values written-back
system.cpu.iew.wb_producers                   7343122                       # num instructions producing a value
system.cpu.iew.wb_rate                       0.671292                       # insts written-back per cycle
system.cpu.iew.wb_sent                       12261023                       # cumulative count of insts sent to commit
system.cpu.int_regfile_reads                 16253656                       # number of integer regfile reads
system.cpu.int_regfile_writes                 9443741                       # number of integer regfile writes
system.cpu.ipc                               0.549315                       # IPC: Instructions Per Cycle
system.cpu.ipc_total                         0.549315                       # IPC: Total IPC of All Threads
system.cpu.iq.FU_type_0::No_OpClass                 6      0.00%      0.00% # Type of FU issued
system.cpu.iq.FU_type_0::IntAlu               7297933     58.32%     58.32% # Type of FU issued
system.cpu.iq.FU_type_0::IntMult               238293      1.90%     60.23% # Type of FU issued
system.cpu.iq.FU_type_0::IntDiv                     3      0.00%     60.23% # Type of FU issued
system.cpu.iq.FU_type_0::FloatAdd               24397      0.19%     60.42% # Type of FU issued
system.cpu.iq.FU_type_0::FloatCmp                   1      0.00%     60.42% # Type of FU issued
system.cpu.iq.FU_type_0::FloatCvt               43830      0.35%     60.77% # Type of FU issued
system.cpu.iq.FU_type_0::FloatMult                 10      0.00%     60.77% # Type of FU issued
system.cpu.iq.FU_type_0::FloatMultAcc              17      0.00%     60.77% # Type of FU issued
system.cpu.iq.FU_type_0::FloatDiv                3648      0.03%     60.80% # Type of FU issued
system.cpu.iq.FU_type_0::FloatMisc              30648      0.24%     61.05% # Type of FU issued
system.cpu.iq.FU_type_0::FloatSqrt                  0      0.00%     61.05% # Type of FU issued
system.cpu.iq.FU_type_0::SimdAdd                   24      0.00%     61.05% # Type of FU issued
system.cpu.iq.FU_type_0::SimdAddAcc                 0      0.00%     61.05% # Type of FU issued
system.cpu.iq.FU_type_0::SimdAlu                   22      0.00%     61.05% # Type of FU issued
system.cpu.iq.FU_type_0::SimdCmp                   23      0.00%     61.05% # Type of FU issued
system.cpu.iq.FU_type_0::SimdCvt                    4      0.00%     61.05% # Type of FU issued
system.cpu.iq.FU_type_0::SimdMisc                  19      0.00%     61.05% # Type of FU issued
system.cpu.iq.FU_type_0::SimdMult                   0      0.00%     61.05% # Type of FU issued
system.cpu.iq.FU_type_0::SimdMultAcc                0      0.00%     61.05% # Type of FU issued
system.cpu.iq.FU_type_0::SimdShift                  0      0.00%     61.05% # Type of FU issued
system.cpu.iq.FU_type_0::SimdShiftAcc               0      0.00%     61.05% # Type of FU issued
system.cpu.iq.FU_type_0::SimdDiv                    0      0.00%     61.05% # Type of FU issued
system.cpu.iq.FU_type_0::SimdSqrt                   0      0.00%     61.05% # Type of FU issued
system.cpu.iq.FU_type_0::SimdFloatAdd               0      0.00%     61.05% # Type of FU issued
system.cpu.iq.FU_type_0::SimdFloatAlu               0      0.00%     61.05% # Type of FU issued
system.cpu.iq.FU_type_0::SimdFloatCmp               0      0.00%     61.05% # Type of FU issued
system.cpu.iq.FU_type_0::SimdFloatCvt               0      0.00%     61.05% # Type of FU issued
system.cpu.iq.FU_type_0::SimdFloatDiv               0      0.00%     61.05% # Type of FU issued
system.cpu.iq.FU_type_0::SimdFloatMisc              0      0.00%     61.05% # Type of FU issued
system.cpu.iq.FU_type_0::SimdFloatMult              0      0.00%     61.05% # Type of FU issued
system.cpu.iq.FU_type_0::SimdFloatMultAcc            0      0.00%     61.05% # Type of FU issued
system.cpu.iq.FU_type_0::SimdFloatSqrt              0      0.00%     61.05% # Type of FU issued
system.cpu.iq.FU_type_0::SimdReduceAdd              0      0.00%     61.05% # Type of FU issued
system.cpu.iq.FU_type_0::SimdReduceAlu              0      0.00%     61.05% # Type of FU issued
system.cpu.iq.FU_type_0::SimdReduceCmp              0      0.00%     61.05% # Type of FU issued
system.cpu.iq.FU_type_0::SimdFloatReduceAdd            0      0.00%     61.05% # Type of FU issued
system.cpu.iq.FU_type_0::SimdFloatReduceCmp            0      0.00%     61.05% # Type of FU issued
system.cpu.iq.FU_type_0::SimdAes                    0      0.00%     61.05% # Type of FU issued
system.cpu.iq.FU_type_0::SimdAesMix                 0      0.00%     61.05% # Type of FU issued
system.cpu.iq.FU_type_0::SimdSha1Hash               0      0.00%     61.05% # Type of FU issued
system.cpu.iq.FU_type_0::SimdSha1Hash2              0      0.00%     61.05% # Type of FU issued
system.cpu.iq.FU_type_0::SimdSha256Hash             0      0.00%     61.05% # Type of FU issued
system.cpu.iq.FU_type_0::SimdSha256Hash2            0      0.00%     61.05% # Type of FU issued
system.cpu.iq.FU_type_0::SimdShaSigma2              0      0.00%     61.05% # Type of FU issued
system.cpu.iq.FU_type_0::SimdShaSigma3              0      0.00%     61.05% # Type of FU issued
system.cpu.iq.FU_type_0::SimdPredAlu                0      0.00%     61.05% # Type of FU issued
system.cpu.iq.FU_type_0::MemRead              3163139     25.28%     86.33% # Type of FU issued
system.cpu.iq.FU_type_0::MemWrite             1710960     13.67%    100.00% # Type of FU issued
system.cpu.iq.FU_type_0::FloatMemRead               0      0.00%    100.00% # Type of FU issued
system.cpu.iq.FU_type_0::FloatMemWrite              0      0.00%    100.00% # Type of FU issued
system.cpu.iq.FU_type_0::IprAccess                  0      0.00%    100.00% # Type of FU issued
system.cpu.iq.FU_type_0::InstPrefetch               0      0.00%    100.00% # Type of FU issued
system.cpu.iq.FU_type_0::total               12512977                       # Type of FU issued
system.cpu.iq.fp_alu_accesses                       0                       # Number of floating point alu accesses
system.cpu.iq.fp_inst_queue_reads                   0                       # Number of floating instruction queue reads
system.cpu.iq.fp_inst_queue_wakeup_accesses            0                       # Number of floating instruction queue wakeup accesses
system.cpu.iq.fp_inst_queue_writes                  0                       # Number of floating instruction queue writes
system.cpu.iq.fu_busy_cnt                      178353                       # FU busy when requested
system.cpu.iq.fu_busy_rate                   0.014253                       # FU busy rate (busy events/executed inst)
system.cpu.iq.fu_full::No_OpClass                   0      0.00%      0.00% # attempts to use FU when none available
system.cpu.iq.fu_full::IntAlu                   13196      7.40%      7.40% # attempts to use FU when none available
system.cpu.iq.fu_full::IntMult                     31      0.02%      7.42% # attempts to use FU when none available
system.cpu.iq.fu_full::IntDiv                       0      0.00%      7.42% # attempts to use FU when none available
system.cpu.iq.fu_full::FloatAdd                     0      0.00%      7.42% # attempts to use FU when none available
system.cpu.iq.fu_full::FloatCmp                     0      0.00%      7.42% # attempts to use FU when none available
system.cpu.iq.fu_full::FloatCvt                     0      0.00%      7.42% # attempts to use FU when none available
system.cpu.iq.fu_full::FloatMult                   16      0.01%      7.43% # attempts to use FU when none available
system.cpu.iq.fu_full::FloatMultAcc                 0      0.00%      7.43% # attempts to use FU when none available
system.cpu.iq.fu_full::FloatDiv                    22      0.01%      7.44% # attempts to use FU when none available
system.cpu.iq.fu_full::FloatMisc                   67      0.04%      7.48% # attempts to use FU when none available
system.cpu.iq.fu_full::FloatSqrt                    0      0.00%      7.48% # attempts to use FU when none available
system.cpu.iq.fu_full::SimdAdd                      0      0.00%      7.48% # attempts to use FU when none available
system.cpu.iq.fu_full::SimdAddAcc                   0      0.00%      7.48% # attempts to use FU when none available
system.cpu.iq.fu_full::SimdAlu                      1      0.00%      7.48% # attempts to use FU when none available
system.cpu.iq.fu_full::SimdCmp                      2      0.00%      7.48% # attempts to use FU when none available
system.cpu.iq.fu_full::SimdCvt                      0      0.00%      7.48% # attempts to use FU when none available
system.cpu.iq.fu_full::SimdMisc                     0      0.00%      7.48% # attempts to use FU when none available
system.cpu.iq.fu_full::SimdMult                     0      0.00%      7.48% # attempts to use FU when none available
system.cpu.iq.fu_full::SimdMultAcc                  0      0.00%      7.48% # attempts to use FU when none available
system.cpu.iq.fu_full::SimdShift                    0      0.00%      7.48% # attempts to use FU when none available
system.cpu.iq.fu_full::SimdShiftAcc                 0      0.00%      7.48% # attempts to use FU when none available
system.cpu.iq.fu_full::SimdDiv                      0      0.00%      7.48% # attempts to use FU when none available
system.cpu.iq.fu_full::SimdSqrt                     0      0.00%      7.48% # attempts to use FU when none available
system.cpu.iq.fu_full::SimdFloatAdd                 0      0.00%      7.48% # attempts to use FU when none available
system.cpu.iq.fu_full::SimdFloatAlu                 0      0.00%      7.48% # attempts to use FU when none available
system.cpu.iq.fu_full::SimdFloatCmp                 0      0.00%      7.48% # attempts to use FU when none available
system.cpu.iq.fu_full::SimdFloatCvt                 0      0.00%      7.48% # attempts to use FU when none available
system.cpu.iq.fu_full::SimdFloatDiv                 0      0.00%      7.48% # attempts to use FU when none available
system.cpu.iq.fu_full::SimdFloatMisc                0      0.00%      7.48% # attempts to use FU when none available
system.cpu.iq.fu_full::SimdFloatMult                0      0.00%      7.48% # attempts to use FU when none available
system.cpu.iq.fu_full::SimdFloatMultAcc             0      0.00%      7.48% # attempts to use FU when none available
system.cpu.iq.fu_full::SimdFloatSqrt                0      0.00%      7.48% # attempts to use FU when none available
system.cpu.iq.fu_full::SimdReduceAdd                0      0.00%      7.48% # attempts to use FU when none available
system.cpu.iq.fu_full::SimdReduceAlu                0      0.00%      7.48% # attempts to use FU when none available
system.cpu.iq.fu_full::SimdReduceCmp                0      0.00%      7.48% # attempts to use FU when none available
system.cpu.iq.fu_full::SimdFloatReduceAdd            0      0.00%      7.48% # attempts to use FU when none available
system.cpu.iq.fu_full::SimdFloatReduceCmp            0      0.00%      7.48% # attempts to use FU when none available
system.cpu.iq.fu_full::SimdAes                      0      0.00%      7.48% # attempts to use FU when none available
system.cpu.iq.fu_full::SimdAesMix                   0      0.00%      7.48% # attempts to use FU when none available
system.cpu.iq.fu_full::SimdSha1Hash                 0      0.00%      7.48% # attempts to use FU when none available
system.cpu.iq.fu_full::SimdSha1Hash2                0      0.00%      7.48% # attempts to use FU when none available
system.cpu.iq.fu_full::SimdSha256Hash               0      0.00%      7.48% # attempts to use FU when none available
system.cpu.iq.fu_full::SimdSha256Hash2              0      0.00%      7.48% # attempts to use FU when none available
system.cpu.iq.fu_full::SimdShaSigma2                0      0.00%      7.48% # attempts to use FU when none available
system.cpu.iq.fu_full::SimdShaSigma3                0      0.00%      7.48% # attempts to use FU when none available
system.cpu.iq.fu_full::SimdPredAlu                  0      0.00%      7.48% # attempts to use FU when none available
system.cpu.iq.fu_full::MemRead                 113896     63.86%     71.34% # attempts to use FU when none available
system.cpu.iq.fu_full::MemWrite                 51122     28.66%    100.00% # attempts to use FU when none available
system.cpu.iq.fu_full::FloatMemRead                 0      0.00%    100.00% # attempts to use FU when none available
system.cpu.iq.fu_full::FloatMemWrite                0      0.00%    100.00% # attempts to use FU when none available
system.cpu.iq.fu_full::IprAccess                    0      0.00%    100.00% # attempts to use FU when none available
system.cpu.iq.fu_full::InstPrefetch                 0      0.00%    100.00% # attempts to use FU when none available
system.cpu.iq.int_alu_accesses               12587870                       # Number of integer alu accesses
system.cpu.iq.int_inst_queue_reads           41390681                       # Number of integer instruction queue reads
system.cpu.iq.int_inst_queue_wakeup_accesses     12119080                       # Number of integer instruction queue wakeup accesses
system.cpu.iq.int_inst_queue_writes          14248611                       # Number of integer instruction queue writes
system.cpu.iq.iqInstsAdded                   12892125                       # Number of instructions added to the IQ (excludes non-spec)
system.cpu.iq.iqInstsIssued                  12512977                       # Number of instructions issued
system.cpu.iq.iqNonSpecInstsAdded                 188                       # Number of non-speculative instructions added to the IQ
system.cpu.iq.iqSquashedInstsExamined         1514557                       # Number of squashed instructions iterated over during squash; mainly for profiling
system.cpu.iq.iqSquashedInstsIssued             12449                       # Number of squashed instructions issued
system.cpu.iq.iqSquashedNonSpecRemoved             26                       # Number of squashed non-spec instructions that were removed
system.cpu.iq.iqSquashedOperandsExamined      1263205                       # Number of squashed operands that are examined and possibly removed from graph
system.cpu.iq.issued_per_cycle::samples      16380785                       # Number of insts issued each cycle
system.cpu.iq.issued_per_cycle::mean         0.763881                       # Number of insts issued each cycle
system.cpu.iq.issued_per_cycle::stdev        1.655514                       # Number of insts issued each cycle
system.cpu.iq.issued_per_cycle::underflows            0      0.00%      0.00% # Number of insts issued each cycle
system.cpu.iq.issued_per_cycle::0            12241956     74.73%     74.73% # Number of insts issued each cycle
system.cpu.iq.issued_per_cycle::1             1278120      7.80%     82.54% # Number of insts issued each cycle
system.cpu.iq.issued_per_cycle::2              786415      4.80%     87.34% # Number of insts issued each cycle
system.cpu.iq.issued_per_cycle::3              631189      3.85%     91.19% # Number of insts issued each cycle
system.cpu.iq.issued_per_cycle::4              483083      2.95%     94.14% # Number of insts issued each cycle
system.cpu.iq.issued_per_cycle::5              388016      2.37%     96.51% # Number of insts issued each cycle
system.cpu.iq.issued_per_cycle::6              255531      1.56%     98.07% # Number of insts issued each cycle
system.cpu.iq.issued_per_cycle::7              168938      1.03%     99.10% # Number of insts issued each cycle
system.cpu.iq.issued_per_cycle::8              147537      0.90%    100.00% # Number of insts issued each cycle
system.cpu.iq.issued_per_cycle::overflows            0      0.00%    100.00% # Number of insts issued each cycle
system.cpu.iq.issued_per_cycle::min_value            0                       # Number of insts issued each cycle
system.cpu.iq.issued_per_cycle::max_value            8                       # Number of insts issued each cycle
system.cpu.iq.issued_per_cycle::total        16380785                       # Number of insts issued each cycle
system.cpu.iq.rate                           0.687356                       # Inst issue rate
system.cpu.iq.vec_alu_accesses                 103454                       # Number of vector alu accesses
system.cpu.iq.vec_inst_queue_reads             206860                       # Number of vector instruction queue reads
system.cpu.iq.vec_inst_queue_wakeup_accesses       101458                       # Number of vector instruction queue wakeup accesses
system.cpu.iq.vec_inst_queue_writes            158374                       # Number of vector instruction queue writes
system.cpu.itb.accesses                             0                       # DTB accesses
system.cpu.itb.align_faults                         0                       # Number of TLB faults due to alignment restrictions
system.cpu.itb.domain_faults                        0                       # Number of TLB faults due to domain restrictions
system.cpu.itb.flush_entries                        0                       # Number of entries that have been flushed from TLB
system.cpu.itb.flush_tlb                            2                       # Number of times complete TLB was flushed
system.cpu.itb.flush_tlb_asid                       0                       # Number of times TLB was flushed by ASID
system.cpu.itb.flush_tlb_mva                        0                       # Number of times TLB was flushed by MVA
system.cpu.itb.flush_tlb_mva_asid                   0                       # Number of times TLB was flushed by MVA & ASID
system.cpu.itb.hits                                 0                       # DTB hits
system.cpu.itb.inst_accesses                        0                       # ITB inst accesses
system.cpu.itb.inst_hits                            0                       # ITB inst hits
system.cpu.itb.inst_misses                          0                       # ITB inst misses
system.cpu.itb.misses                               0                       # DTB misses
system.cpu.itb.perms_faults                         0                       # Number of TLB faults due to permissions restrictions
system.cpu.itb.prefetch_faults                      0                       # Number of TLB faults due to prefetch
system.cpu.itb.read_accesses                        0                       # DTB read accesses
system.cpu.itb.read_hits                            0                       # DTB read hits
system.cpu.itb.read_misses                          0                       # DTB read misses
system.cpu.itb.stage2_mmu.stage2_tlb.accesses            0                       # DTB accesses
system.cpu.itb.stage2_mmu.stage2_tlb.align_faults            0                       # Number of TLB faults due to alignment restrictions
system.cpu.itb.stage2_mmu.stage2_tlb.domain_faults            0                       # Number of TLB faults due to domain restrictions
system.cpu.itb.stage2_mmu.stage2_tlb.flush_entries            0                       # Number of entries that have been flushed from TLB
system.cpu.itb.stage2_mmu.stage2_tlb.flush_tlb            0                       # Number of times complete TLB was flushed
system.cpu.itb.stage2_mmu.stage2_tlb.flush_tlb_asid            0                       # Number of times TLB was flushed by ASID
system.cpu.itb.stage2_mmu.stage2_tlb.flush_tlb_mva            0                       # Number of times TLB was flushed by MVA
system.cpu.itb.stage2_mmu.stage2_tlb.flush_tlb_mva_asid            0                       # Number of times TLB was flushed by MVA & ASID
system.cpu.itb.stage2_mmu.stage2_tlb.hits            0                       # DTB hits
system.cpu.itb.stage2_mmu.stage2_tlb.inst_accesses            0                       # ITB inst accesses
system.cpu.itb.stage2_mmu.stage2_tlb.inst_hits            0                       # ITB inst hits
system.cpu.itb.stage2_mmu.stage2_tlb.inst_misses            0                       # ITB inst misses
system.cpu.itb.stage2_mmu.stage2_tlb.misses            0                       # DTB misses
system.cpu.itb.stage2_mmu.stage2_tlb.perms_faults            0                       # Number of TLB faults due to permissions restrictions
system.cpu.itb.stage2_mmu.stage2_tlb.prefetch_faults            0                       # Number of TLB faults due to prefetch
system.cpu.itb.stage2_mmu.stage2_tlb.read_accesses            0                       # DTB read accesses
system.cpu.itb.stage2_mmu.stage2_tlb.read_hits            0                       # DTB read hits
system.cpu.itb.stage2_mmu.stage2_tlb.read_misses            0                       # DTB read misses
system.cpu.itb.stage2_mmu.stage2_tlb.walker.walkRequestOrigin_Requested::Data            0                       # Table walker requests started/completed, data/inst
system.cpu.itb.stage2_mmu.stage2_tlb.walker.walkRequestOrigin_Requested::Inst            0                       # Table walker requests started/completed, data/inst
system.cpu.itb.stage2_mmu.stage2_tlb.walker.walkRequestOrigin_Requested::total            0                       # Table walker requests started/completed, data/inst
system.cpu.itb.stage2_mmu.stage2_tlb.walker.walkRequestOrigin_Completed::Data            0                       # Table walker requests started/completed, data/inst
system.cpu.itb.stage2_mmu.stage2_tlb.walker.walkRequestOrigin_Completed::Inst            0                       # Table walker requests started/completed, data/inst
system.cpu.itb.stage2_mmu.stage2_tlb.walker.walkRequestOrigin_Completed::total            0                       # Table walker requests started/completed, data/inst
system.cpu.itb.stage2_mmu.stage2_tlb.walker.walkRequestOrigin::total            0                       # Table walker requests started/completed, data/inst
system.cpu.itb.stage2_mmu.stage2_tlb.walker.walks            0                       # Table walker walks requested
system.cpu.itb.stage2_mmu.stage2_tlb.write_accesses            0                       # DTB write accesses
system.cpu.itb.stage2_mmu.stage2_tlb.write_hits            0                       # DTB write hits
system.cpu.itb.stage2_mmu.stage2_tlb.write_misses            0                       # DTB write misses
system.cpu.itb.walker.walkRequestOrigin_Requested::Data            0                       # Table walker requests started/completed, data/inst
system.cpu.itb.walker.walkRequestOrigin_Requested::Inst            0                       # Table walker requests started/completed, data/inst
system.cpu.itb.walker.walkRequestOrigin_Requested::total            0                       # Table walker requests started/completed, data/inst
system.cpu.itb.walker.walkRequestOrigin_Completed::Data            0                       # Table walker requests started/completed, data/inst
system.cpu.itb.walker.walkRequestOrigin_Completed::Inst            0                       # Table walker requests started/completed, data/inst
system.cpu.itb.walker.walkRequestOrigin_Completed::total            0                       # Table walker requests started/completed, data/inst
system.cpu.itb.walker.walkRequestOrigin::total            0                       # Table walker requests started/completed, data/inst
system.cpu.itb.walker.walks                         0                       # Table walker walks requested
system.cpu.itb.write_accesses                       0                       # DTB write accesses
system.cpu.itb.write_hits                           0                       # DTB write hits
system.cpu.itb.write_misses                         0                       # DTB write misses
system.cpu.memDep0.conflictingLoads             33911                       # Number of conflicting loads.
system.cpu.memDep0.conflictingStores            88388                       # Number of conflicting stores.
system.cpu.memDep0.insertedLoads              3148898                       # Number of loads inserted to the mem dependence unit.
system.cpu.memDep0.insertedStores             1776269                       # Number of stores inserted to the mem dependence unit.
system.cpu.misc_regfile_reads                 9173828                       # number of misc regfile reads
system.cpu.misc_regfile_writes                  60935                       # number of misc regfile writes
system.cpu.numCycles                         18204496                       # number of cpu cycles simulated
system.cpu.numWorkItemsCompleted                    0                       # number of work items this cpu completed
system.cpu.numWorkItemsStarted                      0                       # number of work items this cpu started
system.cpu.rename.BlockCycles                 1057937                       # Number of cycles rename is blocking
system.cpu.rename.CommittedMaps              11629682                       # Number of HB maps that are committed
system.cpu.rename.IQFullEvents                  81096                       # Number of times rename has blocked due to IQ full
system.cpu.rename.IdleCycles                  9901141                       # Number of cycles rename is idle
system.cpu.rename.LQFullEvents                 838396                       # Number of times rename has blocked due to LQ full
system.cpu.rename.ROBFullEvents                  2497                       # Number of times rename has blocked due to ROB full
system.cpu.rename.RenameLookups              21280410                       # Number of register rename lookups that rename has made
system.cpu.rename.RenamedInsts               13078045                       # Number of instructions processed by rename
system.cpu.rename.RenamedOperands            13411515                       # Number of destination operands rename has renamed
system.cpu.rename.RunCycles                   2127113                       # Number of cycles rename is running
system.cpu.rename.SQFullEvents                1249368                       # Number of times rename has blocked due to SQ full
system.cpu.rename.SquashCycles                  36008                       # Number of cycles rename is squashing
system.cpu.rename.UnblockCycles               2238721                       # Number of cycles rename is unblocking
system.cpu.rename.UndoneMaps                  1781827                       # Number of HB maps that are undone due to squashing
system.cpu.rename.int_rename_lookups         17155645                       # Number of integer rename lookups
system.cpu.rename.serializeStallCycles        1019865                       # count of cycles rename stalled for serializing inst
system.cpu.rename.serializingInsts              45056                       # count of serializing insts renamed
system.cpu.rename.skidInsts                   1081796                       # count of insts added to the skid buffer
system.cpu.rename.tempSerializingInsts            180                       # count of temporary serializing insts renamed
system.cpu.rename.vec_rename_lookups           100221                       # Number of vector rename lookups
system.cpu.rob.rob_reads                     28384422                       # The number of ROB reads
system.cpu.rob.rob_writes                    26045928                       # The number of ROB writes
system.cpu.timesIdled                          318767                       # Number of times that the entire CPU went into an idle state and unscheduled itself
system.cpu.vec_regfile_reads                    77297                       # number of vector regfile reads
system.cpu.vec_regfile_writes                   80033                       # number of vector regfile writes
system.cpu.workload.numSyscalls                    90                       # Number of system calls
system.membus.snoop_filter.hit_multi_requests            0                       # Number of requests hitting in the snoop filter with multiple (>1) holders of the requested data.
system.membus.snoop_filter.hit_multi_snoops            0                       # Number of snoops hitting in the snoop filter with multiple (>1) holders of the requested data.
system.membus.snoop_filter.hit_single_requests        67876                       # Number of requests hitting in the snoop filter with a single holder of the requested data.
system.membus.snoop_filter.hit_single_snoops            0                       # Number of snoops hitting in the snoop filter with a single holder of the requested data.
system.membus.snoop_filter.tot_requests        168511                       # Total number of requests made to the snoop filter.
system.membus.snoop_filter.tot_snoops               0                       # Total number of snoops made to the snoop filter.
system.tol2bus.snoop_filter.hit_multi_requests           13                       # Number of requests hitting in the snoop filter with multiple (>1) holders of the requested data.
system.tol2bus.snoop_filter.hit_multi_snoops            0                       # Number of snoops hitting in the snoop filter with multiple (>1) holders of the requested data.
system.tol2bus.snoop_filter.hit_single_requests      1469870                       # Number of requests hitting in the snoop filter with a single holder of the requested data.
system.tol2bus.snoop_filter.hit_single_snoops           16                       # Number of snoops hitting in the snoop filter with a single holder of the requested data.
system.tol2bus.snoop_filter.tot_requests      2940784                       # Total number of requests made to the snoop filter.
system.tol2bus.snoop_filter.tot_snoops             16                       # Total number of snoops made to the snoop filter.
system.membus.trans_dist::ReadResp              15852                       # Transaction distribution
system.membus.trans_dist::WritebackDirty        62793                       # Transaction distribution
system.membus.trans_dist::CleanEvict             5074                       # Transaction distribution
system.membus.trans_dist::ReadExReq             27407                       # Transaction distribution
system.membus.trans_dist::ReadExResp            27407                       # Transaction distribution
system.membus.trans_dist::ReadSharedReq         15852                       # Transaction distribution
system.membus.trans_dist::InvalidateReq         57376                       # Transaction distribution
system.membus.pkt_count_system.l2.mem_side::system.mem_ctrls.port       211761                       # Packet count per connected master and slave (bytes)
system.membus.pkt_count::total                 211761                       # Packet count per connected master and slave (bytes)
system.membus.pkt_size_system.l2.mem_side::system.mem_ctrls.port      6787328                       # Cumulative packet size per connected master and slave (bytes)
system.membus.pkt_size::total                 6787328                       # Cumulative packet size per connected master and slave (bytes)
system.membus.snoops                                0                       # Total snoops (count)
system.membus.snoopTraffic                          0                       # Total snoop traffic (bytes)
system.membus.snoop_fanout::samples            100635                       # Request fanout histogram
system.membus.snoop_fanout::mean                    0                       # Request fanout histogram
system.membus.snoop_fanout::stdev                   0                       # Request fanout histogram
system.membus.snoop_fanout::underflows              0      0.00%      0.00% # Request fanout histogram
system.membus.snoop_fanout::0                  100635    100.00%    100.00% # Request fanout histogram
system.membus.snoop_fanout::1                       0      0.00%    100.00% # Request fanout histogram
system.membus.snoop_fanout::overflows               0      0.00%    100.00% # Request fanout histogram
system.membus.snoop_fanout::min_value               0                       # Request fanout histogram
system.membus.snoop_fanout::max_value               0                       # Request fanout histogram
system.membus.snoop_fanout::total              100635                       # Request fanout histogram
system.membus.reqLayer0.occupancy           435383062                       # Layer occupancy (ticks)
system.membus.reqLayer0.utilization               4.8                       # Layer utilization (%)
system.membus.respLayer1.occupancy          230845003                       # Layer occupancy (ticks)
system.membus.respLayer1.utilization              2.5                       # Layer utilization (%)
system.membus.power_state.pwrStateResidencyTicks::UNDEFINED   9102247500                       # Cumulative time (in ticks) in various power states
system.tol2bus.trans_dist::ReadResp           1375476                       # Transaction distribution
system.tol2bus.trans_dist::WritebackDirty       175759                       # Transaction distribution
system.tol2bus.trans_dist::WritebackClean      1351276                       # Transaction distribution
system.tol2bus.trans_dist::CleanEvict           10718                       # Transaction distribution
system.tol2bus.trans_dist::ReadExReq            38057                       # Transaction distribution
system.tol2bus.trans_dist::ReadExResp           38057                       # Transaction distribution
system.tol2bus.trans_dist::ReadCleanReq       1351295                       # Transaction distribution
system.tol2bus.trans_dist::ReadSharedReq        24184                       # Transaction distribution
system.tol2bus.trans_dist::InvalidateReq        57377                       # Transaction distribution
system.tol2bus.trans_dist::InvalidateResp        57377                       # Transaction distribution
system.tol2bus.pkt_count_system.cpu.icache.mem_side::system.l2.cpu_side      4053863                       # Packet count per connected master and slave (bytes)
system.tol2bus.pkt_count_system.cpu.dcache.mem_side::system.l2.cpu_side       357830                       # Packet count per connected master and slave (bytes)
system.tol2bus.pkt_count::total               4411693                       # Packet count per connected master and slave (bytes)
system.tol2bus.pkt_size_system.cpu.icache.mem_side::system.l2.cpu_side    172964352                       # Cumulative packet size per connected master and slave (bytes)
system.tol2bus.pkt_size_system.cpu.dcache.mem_side::system.l2.cpu_side     11213248                       # Cumulative packet size per connected master and slave (bytes)
system.tol2bus.pkt_size::total              184177600                       # Cumulative packet size per connected master and slave (bytes)
system.tol2bus.snoops                           67883                       # Total snoops (count)
system.tol2bus.snoopTraffic                   4018752                       # Total snoop traffic (bytes)
system.tol2bus.snoop_fanout::samples          1538797                       # Request fanout histogram
system.tol2bus.snoop_fanout::mean            0.000019                       # Request fanout histogram
system.tol2bus.snoop_fanout::stdev           0.004341                       # Request fanout histogram
system.tol2bus.snoop_fanout::underflows             0      0.00%      0.00% # Request fanout histogram
system.tol2bus.snoop_fanout::0                1538768    100.00%    100.00% # Request fanout histogram
system.tol2bus.snoop_fanout::1                     29      0.00%    100.00% # Request fanout histogram
system.tol2bus.snoop_fanout::2                      0      0.00%    100.00% # Request fanout histogram
system.tol2bus.snoop_fanout::overflows              0      0.00%    100.00% # Request fanout histogram
system.tol2bus.snoop_fanout::min_value              0                       # Request fanout histogram
system.tol2bus.snoop_fanout::max_value              1                       # Request fanout histogram
system.tol2bus.snoop_fanout::total            1538797                       # Request fanout histogram
system.tol2bus.reqLayer0.occupancy         3087632229                       # Layer occupancy (ticks)
system.tol2bus.reqLayer0.utilization             33.9                       # Layer utilization (%)
system.tol2bus.respLayer1.occupancy         124108874                       # Layer occupancy (ticks)
system.tol2bus.respLayer1.utilization             1.4                       # Layer utilization (%)
system.tol2bus.respLayer0.occupancy        2026941992                       # Layer occupancy (ticks)
system.tol2bus.respLayer0.utilization            22.3                       # Layer utilization (%)
system.tol2bus.power_state.pwrStateResidencyTicks::UNDEFINED   9102247500                       # Cumulative time (in ticks) in various power states
system.voltage_domain.voltage                       1                       # Voltage in Volts
system.clk_domain.clock                          1000                       # Clock period in ticks
system.l2.demand_hits::.cpu.inst               416943                       # number of demand (read+write) hits
system.l2.demand_hits::.cpu.data                19881                       # number of demand (read+write) hits
system.l2.demand_hits::.cpu.icache.prefetcher       933453                       # number of demand (read+write) hits
system.l2.demand_hits::total                  1370277                       # number of demand (read+write) hits
system.l2.overall_hits::.cpu.inst              416943                       # number of overall hits
system.l2.overall_hits::.cpu.data               19881                       # number of overall hits
system.l2.overall_hits::.cpu.icache.prefetcher       933453                       # number of overall hits
system.l2.overall_hits::total                 1370277                       # number of overall hits
system.l2.demand_misses::.cpu.inst                836                       # number of demand (read+write) misses
system.l2.demand_misses::.cpu.data              42360                       # number of demand (read+write) misses
system.l2.demand_misses::.cpu.icache.prefetcher           63                       # number of demand (read+write) misses
system.l2.demand_misses::total                  43259                       # number of demand (read+write) misses
system.l2.overall_misses::.cpu.inst               836                       # number of overall misses
system.l2.overall_misses::.cpu.data             42360                       # number of overall misses
system.l2.overall_misses::.cpu.icache.prefetcher           63                       # number of overall misses
system.l2.overall_misses::total                 43259                       # number of overall misses
system.l2.demand_miss_latency::.cpu.inst     67117000                       # number of demand (read+write) miss cycles
system.l2.demand_miss_latency::.cpu.data   3817518500                       # number of demand (read+write) miss cycles
system.l2.demand_miss_latency::.cpu.icache.prefetcher      6654424                       # number of demand (read+write) miss cycles
system.l2.demand_miss_latency::total       3891289924                       # number of demand (read+write) miss cycles
system.l2.overall_miss_latency::.cpu.inst     67117000                       # number of overall miss cycles
system.l2.overall_miss_latency::.cpu.data   3817518500                       # number of overall miss cycles
system.l2.overall_miss_latency::.cpu.icache.prefetcher      6654424                       # number of overall miss cycles
system.l2.overall_miss_latency::total      3891289924                       # number of overall miss cycles
system.l2.demand_accesses::.cpu.inst           417779                       # number of demand (read+write) accesses
system.l2.demand_accesses::.cpu.data            62241                       # number of demand (read+write) accesses
system.l2.demand_accesses::.cpu.icache.prefetcher       933516                       # number of demand (read+write) accesses
system.l2.demand_accesses::total              1413536                       # number of demand (read+write) accesses
system.l2.overall_accesses::.cpu.inst          417779                       # number of overall (read+write) accesses
system.l2.overall_accesses::.cpu.data           62241                       # number of overall (read+write) accesses
system.l2.overall_accesses::.cpu.icache.prefetcher       933516                       # number of overall (read+write) accesses
system.l2.overall_accesses::total             1413536                       # number of overall (read+write) accesses
system.l2.demand_miss_rate::.cpu.inst        0.002001                       # miss rate for demand accesses
system.l2.demand_miss_rate::.cpu.data        0.680580                       # miss rate for demand accesses
system.l2.demand_miss_rate::.cpu.icache.prefetcher     0.000067                       # miss rate for demand accesses
system.l2.demand_miss_rate::total            0.030603                       # miss rate for demand accesses
system.l2.overall_miss_rate::.cpu.inst       0.002001                       # miss rate for overall accesses
system.l2.overall_miss_rate::.cpu.data       0.680580                       # miss rate for overall accesses
system.l2.overall_miss_rate::.cpu.icache.prefetcher     0.000067                       # miss rate for overall accesses
system.l2.overall_miss_rate::total           0.030603                       # miss rate for overall accesses
system.l2.demand_avg_miss_latency::.cpu.inst 80283.492823                       # average overall miss latency
system.l2.demand_avg_miss_latency::.cpu.data 90120.833333                       # average overall miss latency
system.l2.demand_avg_miss_latency::.cpu.icache.prefetcher 105625.777778                       # average overall miss latency
system.l2.demand_avg_miss_latency::total 89953.302758                       # average overall miss latency
system.l2.overall_avg_miss_latency::.cpu.inst 80283.492823                       # average overall miss latency
system.l2.overall_avg_miss_latency::.cpu.data 90120.833333                       # average overall miss latency
system.l2.overall_avg_miss_latency::.cpu.icache.prefetcher 105625.777778                       # average overall miss latency
system.l2.overall_avg_miss_latency::total 89953.302758                       # average overall miss latency
system.l2.blocked_cycles::no_mshrs                  0                       # number of cycles access was blocked
system.l2.blocked_cycles::no_targets                0                       # number of cycles access was blocked
system.l2.blocked::no_mshrs                         0                       # number of cycles access was blocked
system.l2.blocked::no_targets                       0                       # number of cycles access was blocked
system.l2.avg_blocked_cycles::no_mshrs            nan                       # average number of cycles each access was blocked
system.l2.avg_blocked_cycles::no_targets          nan                       # average number of cycles each access was blocked
system.l2.writebacks::.writebacks               62793                       # number of writebacks
system.l2.writebacks::total                     62793                       # number of writebacks
system.l2.demand_mshr_misses::.cpu.inst           836                       # number of demand (read+write) MSHR misses
system.l2.demand_mshr_misses::.cpu.data         42360                       # number of demand (read+write) MSHR misses
system.l2.demand_mshr_misses::.cpu.icache.prefetcher           63                       # number of demand (read+write) MSHR misses
system.l2.demand_mshr_misses::total             43259                       # number of demand (read+write) MSHR misses
system.l2.overall_mshr_misses::.cpu.inst          836                       # number of overall MSHR misses
system.l2.overall_mshr_misses::.cpu.data        42360                       # number of overall MSHR misses
system.l2.overall_mshr_misses::.cpu.icache.prefetcher           63                       # number of overall MSHR misses
system.l2.overall_mshr_misses::total            43259                       # number of overall MSHR misses
system.l2.demand_mshr_miss_latency::.cpu.inst     58757000                       # number of demand (read+write) MSHR miss cycles
system.l2.demand_mshr_miss_latency::.cpu.data   3393918500                       # number of demand (read+write) MSHR miss cycles
system.l2.demand_mshr_miss_latency::.cpu.icache.prefetcher      6024424                       # number of demand (read+write) MSHR miss cycles
system.l2.demand_mshr_miss_latency::total   3458699924                       # number of demand (read+write) MSHR miss cycles
system.l2.overall_mshr_miss_latency::.cpu.inst     58757000                       # number of overall MSHR miss cycles
system.l2.overall_mshr_miss_latency::.cpu.data   3393918500                       # number of overall MSHR miss cycles
system.l2.overall_mshr_miss_latency::.cpu.icache.prefetcher      6024424                       # number of overall MSHR miss cycles
system.l2.overall_mshr_miss_latency::total   3458699924                       # number of overall MSHR miss cycles
system.l2.demand_mshr_miss_rate::.cpu.inst     0.002001                       # mshr miss rate for demand accesses
system.l2.demand_mshr_miss_rate::.cpu.data     0.680580                       # mshr miss rate for demand accesses
system.l2.demand_mshr_miss_rate::.cpu.icache.prefetcher     0.000067                       # mshr miss rate for demand accesses
system.l2.demand_mshr_miss_rate::total       0.030603                       # mshr miss rate for demand accesses
system.l2.overall_mshr_miss_rate::.cpu.inst     0.002001                       # mshr miss rate for overall accesses
system.l2.overall_mshr_miss_rate::.cpu.data     0.680580                       # mshr miss rate for overall accesses
system.l2.overall_mshr_miss_rate::.cpu.icache.prefetcher     0.000067                       # mshr miss rate for overall accesses
system.l2.overall_mshr_miss_rate::total      0.030603                       # mshr miss rate for overall accesses
system.l2.demand_avg_mshr_miss_latency::.cpu.inst 70283.492823                       # average overall mshr miss latency
system.l2.demand_avg_mshr_miss_latency::.cpu.data 80120.833333                       # average overall mshr miss latency
system.l2.demand_avg_mshr_miss_latency::.cpu.icache.prefetcher 95625.777778                       # average overall mshr miss latency
system.l2.demand_avg_mshr_miss_latency::total 79953.302758                       # average overall mshr miss latency
system.l2.overall_avg_mshr_miss_latency::.cpu.inst 70283.492823                       # average overall mshr miss latency
system.l2.overall_avg_mshr_miss_latency::.cpu.data 80120.833333                       # average overall mshr miss latency
system.l2.overall_avg_mshr_miss_latency::.cpu.icache.prefetcher 95625.777778                       # average overall mshr miss latency
system.l2.overall_avg_mshr_miss_latency::total 79953.302758                       # average overall mshr miss latency
system.l2.replacements                          67883                       # number of replacements
system.l2.WritebackDirty_hits::.writebacks       112966                       # number of WritebackDirty hits
system.l2.WritebackDirty_hits::total           112966                       # number of WritebackDirty hits
system.l2.WritebackDirty_accesses::.writebacks       112966                       # number of WritebackDirty accesses(hits+misses)
system.l2.WritebackDirty_accesses::total       112966                       # number of WritebackDirty accesses(hits+misses)
system.l2.WritebackClean_hits::.writebacks      1351263                       # number of WritebackClean hits
system.l2.WritebackClean_hits::total          1351263                       # number of WritebackClean hits
system.l2.WritebackClean_accesses::.writebacks      1351263                       # number of WritebackClean accesses(hits+misses)
system.l2.WritebackClean_accesses::total      1351263                       # number of WritebackClean accesses(hits+misses)
system.l2.ReadExReq_hits::.cpu.data             10650                       # number of ReadExReq hits
system.l2.ReadExReq_hits::total                 10650                       # number of ReadExReq hits
system.l2.ReadExReq_misses::.cpu.data           27407                       # number of ReadExReq misses
system.l2.ReadExReq_misses::total               27407                       # number of ReadExReq misses
system.l2.ReadExReq_miss_latency::.cpu.data   2559847000                       # number of ReadExReq miss cycles
system.l2.ReadExReq_miss_latency::total    2559847000                       # number of ReadExReq miss cycles
system.l2.ReadExReq_accesses::.cpu.data         38057                       # number of ReadExReq accesses(hits+misses)
system.l2.ReadExReq_accesses::total             38057                       # number of ReadExReq accesses(hits+misses)
system.l2.ReadExReq_miss_rate::.cpu.data     0.720157                       # miss rate for ReadExReq accesses
[...]
system.cpu.dcache.demand_accesses::.cpu.data      4527717                       # number of demand (read+write) accesses
system.cpu.dcache.demand_accesses::total      4527717                       # number of demand (read+write) accesses
system.cpu.dcache.overall_accesses::.cpu.data      4527766                       # number of overall (read+write) accesses
system.cpu.dcache.overall_accesses::total      4527766                       # number of overall (read+write) accesses
system.cpu.dcache.demand_miss_rate::.cpu.data     0.076124                       # miss rate for demand accesses
system.cpu.dcache.demand_miss_rate::total     0.076124                       # miss rate for demand accesses
system.cpu.dcache.overall_miss_rate::.cpu.data     0.076127                       # miss rate for overall accesses
system.cpu.dcache.overall_miss_rate::total     0.076127                       # miss rate for overall accesses
system.cpu.dcache.demand_avg_miss_latency::.cpu.data 46790.158421                       # average overall miss latency
system.cpu.dcache.demand_avg_miss_latency::total 46790.158421                       # average overall miss latency
system.cpu.dcache.overall_avg_miss_latency::.cpu.data 46788.393692                       # average overall miss latency
system.cpu.dcache.overall_avg_miss_latency::total 46788.393692                       # average overall miss latency
system.cpu.dcache.blocked_cycles::no_mshrs      1368960                       # number of cycles access was blocked
system.cpu.dcache.blocked_cycles::no_targets          569                       # number of cycles access was blocked
system.cpu.dcache.blocked::no_mshrs             69718                       # number of cycles access was blocked
system.cpu.dcache.blocked::no_targets              19                       # number of cycles access was blocked
system.cpu.dcache.avg_blocked_cycles::no_mshrs    19.635675                       # average number of cycles each access was blocked
system.cpu.dcache.avg_blocked_cycles::no_targets    29.947368                       # average number of cycles each access was blocked
system.cpu.dcache.writebacks::.writebacks       112966                       # number of writebacks
system.cpu.dcache.writebacks::total            112966                       # number of writebacks
system.cpu.dcache.demand_mshr_hits::.cpu.data       225066                       # number of demand (read+write) MSHR hits
system.cpu.dcache.demand_mshr_hits::total       225066                       # number of demand (read+write) MSHR hits
system.cpu.dcache.overall_mshr_hits::.cpu.data       225066                       # number of overall MSHR hits
system.cpu.dcache.overall_mshr_hits::total       225066                       # number of overall MSHR hits
system.cpu.dcache.demand_mshr_misses::.cpu.data       119604                       # number of demand (read+write) MSHR misses
system.cpu.dcache.demand_mshr_misses::total       119604                       # number of demand (read+write) MSHR misses
system.cpu.dcache.overall_mshr_misses::.cpu.data       119617                       # number of overall MSHR misses
system.cpu.dcache.overall_mshr_misses::total       119617                       # number of overall MSHR misses
system.cpu.dcache.demand_mshr_miss_latency::.cpu.data   5970012647                       # number of demand (read+write) MSHR miss cycles
system.cpu.dcache.demand_mshr_miss_latency::total   5970012647                       # number of demand (read+write) MSHR miss cycles
system.cpu.dcache.overall_mshr_miss_latency::.cpu.data   5970332147                       # number of overall MSHR miss cycles
system.cpu.dcache.overall_mshr_miss_latency::total   5970332147                       # number of overall MSHR miss cycles
system.cpu.dcache.demand_mshr_miss_rate::.cpu.data     0.026416                       # mshr miss rate for demand accesses
system.cpu.dcache.demand_mshr_miss_rate::total     0.026416                       # mshr miss rate for demand accesses
system.cpu.dcache.overall_mshr_miss_rate::.cpu.data     0.026419                       # mshr miss rate for overall accesses
system.cpu.dcache.overall_mshr_miss_rate::total     0.026419                       # mshr miss rate for overall accesses
system.cpu.dcache.demand_avg_mshr_miss_latency::.cpu.data 49914.824312                       # average overall mshr miss latency
system.cpu.dcache.demand_avg_mshr_miss_latency::total 49914.824312                       # average overall mshr miss latency
system.cpu.dcache.overall_avg_mshr_miss_latency::.cpu.data 49912.070584                       # average overall mshr miss latency
system.cpu.dcache.overall_avg_mshr_miss_latency::total 49912.070584                       # average overall mshr miss latency
system.cpu.dcache.replacements                 118594                       # number of replacements
system.cpu.dcache.ReadReq_hits::.cpu.data      2867865                       # number of ReadReq hits
system.cpu.dcache.ReadReq_hits::total         2867865                       # number of ReadReq hits
system.cpu.dcache.ReadReq_misses::.cpu.data        76099                       # number of ReadReq misses
system.cpu.dcache.ReadReq_misses::total         76099                       # number of ReadReq misses
system.cpu.dcache.ReadReq_miss_latency::.cpu.data   4242701000                       # number of ReadReq miss cycles
system.cpu.dcache.ReadReq_miss_latency::total   4242701000                       # number of ReadReq miss cycles
system.cpu.dcache.ReadReq_accesses::.cpu.data      2943964                       # number of ReadReq accesses(hits+misses)
system.cpu.dcache.ReadReq_accesses::total      2943964                       # number of ReadReq accesses(hits+misses)
system.cpu.dcache.ReadReq_miss_rate::.cpu.data     0.025849                       # miss rate for ReadReq accesses
system.cpu.dcache.ReadReq_miss_rate::total     0.025849                       # miss rate for ReadReq accesses
system.cpu.dcache.ReadReq_avg_miss_latency::.cpu.data 55752.388336                       # average ReadReq miss latency
system.cpu.dcache.ReadReq_avg_miss_latency::total 55752.388336                       # average ReadReq miss latency
system.cpu.dcache.ReadReq_mshr_hits::.cpu.data        51929                       # number of ReadReq MSHR hits
system.cpu.dcache.ReadReq_mshr_hits::total        51929                       # number of ReadReq MSHR hits
system.cpu.dcache.ReadReq_mshr_misses::.cpu.data        24170                       # number of ReadReq MSHR misses
system.cpu.dcache.ReadReq_mshr_misses::total        24170                       # number of ReadReq MSHR misses
system.cpu.dcache.ReadReq_mshr_miss_latency::.cpu.data   1395327000                       # number of ReadReq MSHR miss cycles
system.cpu.dcache.ReadReq_mshr_miss_latency::total   1395327000                       # number of ReadReq MSHR miss cycles
system.cpu.dcache.ReadReq_mshr_miss_rate::.cpu.data     0.008210                       # mshr miss rate for ReadReq accesses
system.cpu.dcache.ReadReq_mshr_miss_rate::total     0.008210                       # mshr miss rate for ReadReq accesses
system.cpu.dcache.ReadReq_avg_mshr_miss_latency::.cpu.data 57729.706247                       # average ReadReq mshr miss latency
system.cpu.dcache.ReadReq_avg_mshr_miss_latency::total 57729.706247                       # average ReadReq mshr miss latency
system.cpu.dcache.WriteReq_hits::.cpu.data      1315182                       # number of WriteReq hits
system.cpu.dcache.WriteReq_hits::total        1315182                       # number of WriteReq hits
system.cpu.dcache.WriteReq_misses::.cpu.data       211229                       # number of WriteReq misses
system.cpu.dcache.WriteReq_misses::total       211229                       # number of WriteReq misses
system.cpu.dcache.WriteReq_miss_latency::.cpu.data   9993989851                       # number of WriteReq miss cycles
system.cpu.dcache.WriteReq_miss_latency::total   9993989851                       # number of WriteReq miss cycles
system.cpu.dcache.WriteReq_accesses::.cpu.data      1526411                       # number of WriteReq accesses(hits+misses)
system.cpu.dcache.WriteReq_accesses::total      1526411                       # number of WriteReq accesses(hits+misses)
system.cpu.dcache.WriteReq_miss_rate::.cpu.data     0.138383                       # miss rate for WriteReq accesses
system.cpu.dcache.WriteReq_miss_rate::total     0.138383                       # miss rate for WriteReq accesses
system.cpu.dcache.WriteReq_avg_miss_latency::.cpu.data 47313.531054                       # average WriteReq miss latency
system.cpu.dcache.WriteReq_avg_miss_latency::total 47313.531054                       # average WriteReq miss latency
system.cpu.dcache.WriteReq_mshr_hits::.cpu.data       173137                       # number of WriteReq MSHR hits
system.cpu.dcache.WriteReq_mshr_hits::total       173137                       # number of WriteReq MSHR hits
system.cpu.dcache.WriteReq_mshr_misses::.cpu.data        38092                       # number of WriteReq MSHR misses
system.cpu.dcache.WriteReq_mshr_misses::total        38092                       # number of WriteReq MSHR misses
system.cpu.dcache.WriteReq_mshr_miss_latency::.cpu.data   2741554595                       # number of WriteReq MSHR miss cycles
system.cpu.dcache.WriteReq_mshr_miss_latency::total   2741554595                       # number of WriteReq MSHR miss cycles
system.cpu.dcache.WriteReq_mshr_miss_rate::.cpu.data     0.024955                       # mshr miss rate for WriteReq accesses
system.cpu.dcache.WriteReq_mshr_miss_rate::total     0.024955                       # mshr miss rate for WriteReq accesses
system.cpu.dcache.WriteReq_avg_mshr_miss_latency::.cpu.data 71971.925732                       # average WriteReq mshr miss latency
system.cpu.dcache.WriteReq_avg_mshr_miss_latency::total 71971.925732                       # average WriteReq mshr miss latency
system.cpu.dcache.SoftPFReq_hits::.cpu.data           36                       # number of SoftPFReq hits
system.cpu.dcache.SoftPFReq_hits::total            36                       # number of SoftPFReq hits
system.cpu.dcache.SoftPFReq_misses::.cpu.data           13                       # number of SoftPFReq misses
system.cpu.dcache.SoftPFReq_misses::total           13                       # number of SoftPFReq misses
system.cpu.dcache.SoftPFReq_accesses::.cpu.data           49                       # number of SoftPFReq accesses(hits+misses)
system.cpu.dcache.SoftPFReq_accesses::total           49                       # number of SoftPFReq accesses(hits+misses)
system.cpu.dcache.SoftPFReq_miss_rate::.cpu.data     0.265306                       # miss rate for SoftPFReq accesses
system.cpu.dcache.SoftPFReq_miss_rate::total     0.265306                       # miss rate for SoftPFReq accesses
system.cpu.dcache.SoftPFReq_mshr_misses::.cpu.data           13                       # number of SoftPFReq MSHR misses
system.cpu.dcache.SoftPFReq_mshr_misses::total           13                       # number of SoftPFReq MSHR misses
system.cpu.dcache.SoftPFReq_mshr_miss_latency::.cpu.data       319500                       # number of SoftPFReq MSHR miss cycles
system.cpu.dcache.SoftPFReq_mshr_miss_latency::total       319500                       # number of SoftPFReq MSHR miss cycles
system.cpu.dcache.SoftPFReq_mshr_miss_rate::.cpu.data     0.265306                       # mshr miss rate for SoftPFReq accesses
system.cpu.dcache.SoftPFReq_mshr_miss_rate::total     0.265306                       # mshr miss rate for SoftPFReq accesses
system.cpu.dcache.SoftPFReq_avg_mshr_miss_latency::.cpu.data 24576.923077                       # average SoftPFReq mshr miss latency
system.cpu.dcache.SoftPFReq_avg_mshr_miss_latency::total 24576.923077                       # average SoftPFReq mshr miss latency
system.cpu.dcache.WriteLineReq_misses::.cpu.data        57342                       # number of WriteLineReq misses
system.cpu.dcache.WriteLineReq_misses::total        57342                       # number of WriteLineReq misses
system.cpu.dcache.WriteLineReq_miss_latency::.cpu.data   1890473052                       # number of WriteLineReq miss cycles
system.cpu.dcache.WriteLineReq_miss_latency::total   1890473052                       # number of WriteLineReq miss cycles
system.cpu.dcache.WriteLineReq_accesses::.cpu.data        57342                       # number of WriteLineReq accesses(hits+misses)
system.cpu.dcache.WriteLineReq_accesses::total        57342                       # number of WriteLineReq accesses(hits+misses)
system.cpu.dcache.WriteLineReq_miss_rate::.cpu.data            1                       # miss rate for WriteLineReq accesses
system.cpu.dcache.WriteLineReq_miss_rate::total            1                       # miss rate for WriteLineReq accesses
system.cpu.dcache.WriteLineReq_avg_miss_latency::.cpu.data 32968.383593                       # average WriteLineReq miss latency
system.cpu.dcache.WriteLineReq_avg_miss_latency::total 32968.383593                       # average WriteLineReq miss latency
system.cpu.dcache.WriteLineReq_mshr_misses::.cpu.data        57342                       # number of WriteLineReq MSHR misses
system.cpu.dcache.WriteLineReq_mshr_misses::total        57342                       # number of WriteLineReq MSHR misses
system.cpu.dcache.WriteLineReq_mshr_miss_latency::.cpu.data   1833131052                       # number of WriteLineReq MSHR miss cycles
system.cpu.dcache.WriteLineReq_mshr_miss_latency::total   1833131052                       # number of WriteLineReq MSHR miss cycles
system.cpu.dcache.WriteLineReq_mshr_miss_rate::.cpu.data            1                       # mshr miss rate for WriteLineReq accesses
system.cpu.dcache.WriteLineReq_mshr_miss_rate::total            1                       # mshr miss rate for WriteLineReq accesses
system.cpu.dcache.WriteLineReq_avg_mshr_miss_latency::.cpu.data 31968.383593                       # average WriteLineReq mshr miss latency
system.cpu.dcache.WriteLineReq_avg_mshr_miss_latency::total 31968.383593                       # average WriteLineReq mshr miss latency
system.cpu.dcache.LoadLockedReq_hits::.cpu.data           84                       # number of LoadLockedReq hits
system.cpu.dcache.LoadLockedReq_hits::total           84                       # number of LoadLockedReq hits
system.cpu.dcache.LoadLockedReq_misses::.cpu.data            2                       # number of LoadLockedReq misses
system.cpu.dcache.LoadLockedReq_misses::total            2                       # number of LoadLockedReq misses
system.cpu.dcache.LoadLockedReq_miss_latency::.cpu.data        51000                       # number of LoadLockedReq miss cycles
system.cpu.dcache.LoadLockedReq_miss_latency::total        51000                       # number of LoadLockedReq miss cycles
system.cpu.dcache.LoadLockedReq_accesses::.cpu.data           86                       # number of LoadLockedReq accesses(hits+misses)
system.cpu.dcache.LoadLockedReq_accesses::total           86                       # number of LoadLockedReq accesses(hits+misses)
system.cpu.dcache.LoadLockedReq_miss_rate::.cpu.data     0.023256                       # miss rate for LoadLockedReq accesses
system.cpu.dcache.LoadLockedReq_miss_rate::total     0.023256                       # miss rate for LoadLockedReq accesses
system.cpu.dcache.LoadLockedReq_avg_miss_latency::.cpu.data        25500                       # average LoadLockedReq miss latency
system.cpu.dcache.LoadLockedReq_avg_miss_latency::total        25500                       # average LoadLockedReq miss latency
system.cpu.dcache.LoadLockedReq_mshr_hits::.cpu.data            1                       # number of LoadLockedReq MSHR hits
system.cpu.dcache.LoadLockedReq_mshr_hits::total            1                       # number of LoadLockedReq MSHR hits
system.cpu.dcache.LoadLockedReq_mshr_misses::.cpu.data            1                       # number of LoadLockedReq MSHR misses
system.cpu.dcache.LoadLockedReq_mshr_misses::total            1                       # number of LoadLockedReq MSHR misses
system.cpu.dcache.LoadLockedReq_mshr_miss_latency::.cpu.data        12000                       # number of LoadLockedReq MSHR miss cycles
system.cpu.dcache.LoadLockedReq_mshr_miss_latency::total        12000                       # number of LoadLockedReq MSHR miss cycles
system.cpu.dcache.LoadLockedReq_mshr_miss_rate::.cpu.data     0.011628                       # mshr miss rate for LoadLockedReq accesses
system.cpu.dcache.LoadLockedReq_mshr_miss_rate::total     0.011628                       # mshr miss rate for LoadLockedReq accesses
system.cpu.dcache.LoadLockedReq_avg_mshr_miss_latency::.cpu.data        12000                       # average LoadLockedReq mshr miss latency
system.cpu.dcache.LoadLockedReq_avg_mshr_miss_latency::total        12000                       # average LoadLockedReq mshr miss latency
system.cpu.dcache.StoreCondReq_hits::.cpu.data           71                       # number of StoreCondReq hits
system.cpu.dcache.StoreCondReq_hits::total           71                       # number of StoreCondReq hits
system.cpu.dcache.StoreCondReq_accesses::.cpu.data           71                       # number of StoreCondReq accesses(hits+misses)
system.cpu.dcache.StoreCondReq_accesses::total           71                       # number of StoreCondReq accesses(hits+misses)
system.cpu.dcache.power_state.pwrStateResidencyTicks::UNDEFINED   9102247500                       # Cumulative time (in ticks) in various power states
system.cpu.dcache.tags.tagsinuse          1018.330547                       # Cycle average of tags in use
system.cpu.dcache.tags.total_refs             4302856                       # Total number of references to valid blocks.
system.cpu.dcache.tags.sampled_refs            119618                       # Sample count of references to valid blocks.
system.cpu.dcache.tags.avg_refs             35.971643                       # Average number of references to valid blocks.
system.cpu.dcache.tags.warmup_cycle            176500                       # Cycle when the warmup percentage was hit.
system.cpu.dcache.tags.occ_blocks::.cpu.data  1018.330547                       # Average occupied blocks per requestor
system.cpu.dcache.tags.occ_percent::.cpu.data     0.994463                       # Average percentage of cache occupancy
system.cpu.dcache.tags.occ_percent::total     0.994463                       # Average percentage of cache occupancy
system.cpu.dcache.tags.occ_task_id_blocks::1024         1024                       # Occupied blocks per task id
system.cpu.dcache.tags.age_task_id_blocks_1024::0           44                       # Occupied blocks per task id
system.cpu.dcache.tags.age_task_id_blocks_1024::1          349                       # Occupied blocks per task id
system.cpu.dcache.tags.age_task_id_blocks_1024::2          616                       # Occupied blocks per task id
system.cpu.dcache.tags.age_task_id_blocks_1024::3           15                       # Occupied blocks per task id
system.cpu.dcache.tags.occ_task_id_percent::1024            1                       # Percentage of cache occupancy per task id
system.cpu.dcache.tags.tag_accesses           9175464                       # Number of tag accesses
system.cpu.dcache.tags.data_accesses          9175464                       # Number of data accesses
system.cpu.dcache.tags.power_state.pwrStateResidencyTicks::UNDEFINED   9102247500                       # Cumulative time (in ticks) in various power states
system.cpu.power_state.pwrStateResidencyTicks::ON   9102247500                       # Cumulative time (in ticks) in various power states

---------- End Simulation Statistics   ----------
