
---------- Begin Simulation Statistics ----------
final_tick                                 8624233500                       # Number of ticks from beginning of simulation (restored from checkpoints and never reset)
host_inst_rate                                 167625                       # Simulator instruction rate (inst/s)
host_mem_usage                                 870416                       # Number of bytes of host memory used
host_op_rate                                   168080                       # Simulator op (including micro ops) rate (op/s)
host_seconds                                    59.66                       # Real time elapsed on the host
host_tick_rate                              144563239                       # Simulator tick rate (ticks/s)
sim_freq                                 1000000000000                       # Frequency of simulated ticks
sim_insts                                    10000002                       # Number of instructions simulated
sim_ops                                      10027169                       # Number of ops (including micro ops) simulated
sim_seconds                                  0.008624                       # Number of seconds simulated
sim_ticks                                  8624233500                       # Number of ticks simulated
system.cpu.branchPred.BTBCorrect                    0                       # Number of correct BTB predictions (this stat may not work properly.
system.cpu.branchPred.BTBHitPct             99.923077                       # BTB Hit Percentage
system.cpu.branchPred.BTBHits                 3008495                       # Number of BTB hits
system.cpu.branchPred.BTBLookups              3010811                       # Number of BTB lookups
system.cpu.branchPred.RASInCorrect                 15                       # Number of incorrect RAS predictions.
system.cpu.branchPred.condIncorrect             22823                       # Number of conditional branches incorrect
system.cpu.branchPred.condPredicted           3041818                       # Number of conditional branches predicted
system.cpu.branchPred.indirectHits               1734                       # Number of indirect target hits.
system.cpu.branchPred.indirectLookups            2830                       # Number of indirect predictor lookups.
system.cpu.branchPred.indirectMisses             1096                       # Number of indirect misses.
system.cpu.branchPred.lookups                 3057424                       # Number of BP lookups
system.cpu.branchPred.usedRAS                    6032                       # Number of times the RAS was used to get a target.
system.cpu.branchPredindirectMispredicted          243                       # Number of mispredicted indirect branches.
system.cpu.cc_regfile_reads                   7998651                       # number of cc regfile reads
system.cpu.cc_regfile_writes                  8033247                       # number of cc regfile writes
system.cpu.commit.amos                              0                       # Number of atomic instructions committed
system.cpu.commit.branchMispredicts             22228                       # The number of times a branch was mispredicted
system.cpu.commit.branches                    2501415                       # Number of branches committed
system.cpu.commit.bw_lim_events                 10144                       # number cycles where commit BW limit reached
system.cpu.commit.commitNonSpecStalls             174                       # The number of times commit has been forced to stall to communicate backwards
system.cpu.commit.commitSquashedInsts          798811                       # The number of squashed insts skipped by commit
system.cpu.commit.committedInsts             10019633                       # Number of instructions committed
system.cpu.commit.committedOps               10046800                       # Number of ops (including micro ops) committed
system.cpu.commit.committed_per_cycle::samples     17071792                       # Number of insts commited each cycle
system.cpu.commit.committed_per_cycle::mean     0.588503                       # Number of insts commited each cycle
system.cpu.commit.committed_per_cycle::stdev     1.336136                       # Number of insts commited each cycle
system.cpu.commit.committed_per_cycle::underflows            0      0.00%      0.00% # Number of insts commited each cycle
system.cpu.commit.committed_per_cycle::0     13790177     80.78%     80.78% # Number of insts commited each cycle
system.cpu.commit.committed_per_cycle::1       782943      4.59%     85.36% # Number of insts commited each cycle
system.cpu.commit.committed_per_cycle::2       206707      1.21%     86.57% # Number of insts commited each cycle
system.cpu.commit.committed_per_cycle::3       399287      2.34%     88.91% # Number of insts commited each cycle
system.cpu.commit.committed_per_cycle::4      1856910     10.88%     99.79% # Number of insts commited each cycle
system.cpu.commit.committed_per_cycle::5        16969      0.10%     99.89% # Number of insts commited each cycle
system.cpu.commit.committed_per_cycle::6         1640      0.01%     99.90% # Number of insts commited each cycle
system.cpu.commit.committed_per_cycle::7         7015      0.04%     99.94% # Number of insts commited each cycle
system.cpu.commit.committed_per_cycle::8        10144      0.06%    100.00% # Number of insts commited each cycle
system.cpu.commit.committed_per_cycle::overflows            0      0.00%    100.00% # Number of insts commited each cycle
system.cpu.commit.committed_per_cycle::min_value            0                       # Number of insts commited each cycle
system.cpu.commit.committed_per_cycle::max_value            8                       # Number of insts commited each cycle
system.cpu.commit.committed_per_cycle::total     17071792                       # Number of insts commited each cycle
system.cpu.commit.fp_insts                          0                       # Number of committed floating point instructions.
system.cpu.commit.function_calls                 4620                       # Number of function calls committed.
system.cpu.commit.int_insts                   7546090                       # Number of committed integer instructions.
system.cpu.commit.loads                         35385                       # Number of loads committed
system.cpu.commit.membars                         138                       # Number of memory barriers committed
system.cpu.commit.op_class_0::No_OpClass            3      0.00%      0.00% # Class of committed instruction
system.cpu.commit.op_class_0::IntAlu          7555307     75.20%     75.20% # Class of committed instruction
system.cpu.commit.op_class_0::IntMult             384      0.00%     75.20% # Class of committed instruction
system.cpu.commit.op_class_0::IntDiv               94      0.00%     75.21% # Class of committed instruction
system.cpu.commit.op_class_0::FloatAdd              8      0.00%     75.21% # Class of committed instruction
system.cpu.commit.op_class_0::FloatCmp              0      0.00%     75.21% # Class of committed instruction
system.cpu.commit.op_class_0::FloatCvt              0      0.00%     75.21% # Class of committed instruction
system.cpu.commit.op_class_0::FloatMult             0      0.00%     75.21% # Class of committed instruction
system.cpu.commit.op_class_0::FloatMultAcc            0      0.00%     75.21% # Class of committed instruction
system.cpu.commit.op_class_0::FloatDiv              0      0.00%     75.21% # Class of committed instruction
system.cpu.commit.op_class_0::FloatMisc            32      0.00%     75.21% # Class of committed instruction
system.cpu.commit.op_class_0::FloatSqrt             0      0.00%     75.21% # Class of committed instruction
system.cpu.commit.op_class_0::SimdAdd              15      0.00%     75.21% # Class of committed instruction
system.cpu.commit.op_class_0::SimdAddAcc            0      0.00%     75.21% # Class of committed instruction
system.cpu.commit.op_class_0::SimdAlu              10      0.00%     75.21% # Class of committed instruction
system.cpu.commit.op_class_0::SimdCmp              12      0.00%     75.21% # Class of committed instruction
system.cpu.commit.op_class_0::SimdCvt               0      0.00%     75.21% # Class of committed instruction
system.cpu.commit.op_class_0::SimdMisc             72      0.00%     75.21% # Class of committed instruction
system.cpu.commit.op_class_0::SimdMult              0      0.00%     75.21% # Class of committed instruction
system.cpu.commit.op_class_0::SimdMultAcc            0      0.00%     75.21% # Class of committed instruction
system.cpu.commit.op_class_0::SimdShift             0      0.00%     75.21% # Class of committed instruction
system.cpu.commit.op_class_0::SimdShiftAcc            0      0.00%     75.21% # Class of committed instruction
system.cpu.commit.op_class_0::SimdDiv               0      0.00%     75.21% # Class of committed instruction
system.cpu.commit.op_class_0::SimdSqrt              0      0.00%     75.21% # Class of committed instruction
system.cpu.commit.op_class_0::SimdFloatAdd            0      0.00%     75.21% # Class of committed instruction
system.cpu.commit.op_class_0::SimdFloatAlu            0      0.00%     75.21% # Class of committed instruction
system.cpu.commit.op_class_0::SimdFloatCmp            0      0.00%     75.21% # Class of committed instruction
system.cpu.commit.op_class_0::SimdFloatCvt            0      0.00%     75.21% # Class of committed instruction
system.cpu.commit.op_class_0::SimdFloatDiv            0      0.00%     75.21% # Class of committed instruction
system.cpu.commit.op_class_0::SimdFloatMisc            0      0.00%     75.21% # Class of committed instruction
system.cpu.commit.op_class_0::SimdFloatMult            0      0.00%     75.21% # Class of committed instruction
system.cpu.commit.op_class_0::SimdFloatMultAcc            0      0.00%     75.21% # Class of committed instruction
system.cpu.commit.op_class_0::SimdFloatSqrt            0      0.00%     75.21% # Class of committed instruction
system.cpu.commit.op_class_0::SimdReduceAdd            0      0.00%     75.21% # Class of committed instruction
system.cpu.commit.op_class_0::SimdReduceAlu            0      0.00%     75.21% # Class of committed instruction
system.cpu.commit.op_class_0::SimdReduceCmp            0      0.00%     75.21% # Class of committed instruction
system.cpu.commit.op_class_0::SimdFloatReduceAdd            0      0.00%     75.21% # Class of committed instruction
system.cpu.commit.op_class_0::SimdFloatReduceCmp            0      0.00%     75.21% # Class of committed instruction
system.cpu.commit.op_class_0::SimdAes               0      0.00%     75.21% # Class of committed instruction
system.cpu.commit.op_class_0::SimdAesMix            0      0.00%     75.21% # Class of committed instruction
system.cpu.commit.op_class_0::SimdSha1Hash            0      0.00%     75.21% # Class of committed instruction
system.cpu.commit.op_class_0::SimdSha1Hash2            0      0.00%     75.21% # Class of committed instruction
system.cpu.commit.op_class_0::SimdSha256Hash            0      0.00%     75.21% # Class of committed instruction
system.cpu.commit.op_class_0::SimdSha256Hash2            0      0.00%     75.21% # Class of committed instruction
system.cpu.commit.op_class_0::SimdShaSigma2            0      0.00%     75.21% # Class of committed instruction
system.cpu.commit.op_class_0::SimdShaSigma3            0      0.00%     75.21% # Class of committed instruction
system.cpu.commit.op_class_0::SimdPredAlu            0      0.00%     75.21% # Class of committed instruction
system.cpu.commit.op_class_0::MemRead           35385      0.35%     75.56% # Class of committed instruction
system.cpu.commit.op_class_0::MemWrite        2455478     24.44%    100.00% # Class of committed instruction
system.cpu.commit.op_class_0::FloatMemRead            0      0.00%    100.00% # Class of committed instruction
system.cpu.commit.op_class_0::FloatMemWrite            0      0.00%    100.00% # Class of committed instruction
system.cpu.commit.op_class_0::IprAccess             0      0.00%    100.00% # Class of committed instruction
system.cpu.commit.op_class_0::InstPrefetch            0      0.00%    100.00% # Class of committed instruction
system.cpu.commit.op_class_0::total          10046800                       # Class of committed instruction
system.cpu.commit.refs                        2490863                       # Number of memory references committed
system.cpu.commit.swp_count                         0                       # Number of s/w prefetches committed
system.cpu.commit.vec_insts                      2101                       # Number of committed Vector instructions.
system.cpu.committedInsts                    10000002                       # Number of Instructions Simulated
system.cpu.committedOps                      10027169                       # Number of Ops (including micro ops) Simulated
system.cpu.cpi                               1.724847                       # CPI: Cycles Per Instruction
system.cpu.cpi_total                         1.724847                       # CPI: Total CPI of All Threads
system.cpu.decode.BlockedCycles              15177971                       # Number of cycles decode is blocked
system.cpu.decode.BranchMispred                   631                       # Number of times decode detected a branch misprediction
system.cpu.decode.BranchResolved              2787168                       # Number of times decode resolved a branch
system.cpu.decode.DecodedInsts               11383185                       # Number of instructions handled by decode
system.cpu.decode.IdleCycles                   367952                       # Number of cycles decode is idle
system.cpu.decode.RunCycles                   1039264                       # Number of cycles decode is running
system.cpu.decode.SquashCycles                  27055                       # Number of cycles decode is squashing
system.cpu.decode.SquashedInsts                  2197                       # Number of squashed instructions handled by decode
system.cpu.decode.UnblockCycles                570574                       # Number of cycles decode is unblocking
system.cpu.dtb.accesses                             0                       # DTB accesses
system.cpu.dtb.align_faults                         0                       # Number of TLB faults due to alignment restrictions
system.cpu.dtb.domain_faults                        0                       # Number of TLB faults due to domain restrictions
system.cpu.dtb.flush_entries                        0                       # Number of entries that have been flushed from TLB
system.cpu.dtb.flush_tlb                            0                       # Number of times complete TLB was flushed
system.cpu.dtb.flush_tlb_asid                       0                       # Number of times TLB was flushed by ASID
system.cpu.dtb.flush_tlb_mva                        0                       # Number of times TLB was flushed by MVA
system.cpu.dtb.flush_tlb_mva_asid                   0                       # Number of times TLB was flushed by MVA & ASID
system.cpu.dtb.hits                                 0                       # DTB hits
system.cpu.dtb.inst_accesses                        0                       # ITB inst accesses
system.cpu.dtb.inst_hits                            0                       # ITB inst hits
system.cpu.dtb.inst_misses                          0                       # ITB inst misses
system.cpu.dtb.misses                               0                       # DTB misses
system.cpu.dtb.perms_faults                         0                       # Number of TLB faults due to permissions restrictions
system.cpu.dtb.prefetch_faults                      0                       # Number of TLB faults due to prefetch
system.cpu.dtb.read_accesses                        0                       # DTB read accesses
system.cpu.dtb.read_hits                            0                       # DTB read hits
system.cpu.dtb.read_misses                          0                       # DTB read misses
system.cpu.dtb.stage2_mmu.stage2_tlb.accesses            0                       # DTB accesses
system.cpu.dtb.stage2_mmu.stage2_tlb.align_faults            0                       # Number of TLB faults due to alignment restrictions
system.cpu.dtb.stage2_mmu.stage2_tlb.domain_faults            0                       # Number of TLB faults due to domain restrictions
system.cpu.dtb.stage2_mmu.stage2_tlb.flush_entries            0                       # Number of entries that have been flushed from TLB
system.cpu.dtb.stage2_mmu.stage2_tlb.flush_tlb            0                       # Number of times complete TLB was flushed
system.cpu.dtb.stage2_mmu.stage2_tlb.flush_tlb_asid            0                       # Number of times TLB was flushed by ASID
system.cpu.dtb.stage2_mmu.stage2_tlb.flush_tlb_mva            0                       # Number of times TLB was flushed by MVA
system.cpu.dtb.stage2_mmu.stage2_tlb.flush_tlb_mva_asid            0                       # Number of times TLB was flushed by MVA & ASID
system.cpu.dtb.stage2_mmu.stage2_tlb.hits            0                       # DTB hits
system.cpu.dtb.stage2_mmu.stage2_tlb.inst_accesses            0                       # ITB inst accesses
system.cpu.dtb.stage2_mmu.stage2_tlb.inst_hits            0                       # ITB inst hits
system.cpu.dtb.stage2_mmu.stage2_tlb.inst_misses            0                       # ITB inst misses
system.cpu.dtb.stage2_mmu.stage2_tlb.misses            0                       # DTB misses
system.cpu.dtb.stage2_mmu.stage2_tlb.perms_faults            0                       # Number of TLB faults due to permissions restrictions
system.cpu.dtb.stage2_mmu.stage2_tlb.prefetch_faults            0                       # Number of TLB faults due to prefetch
system.cpu.dtb.stage2_mmu.stage2_tlb.read_accesses            0                       # DTB read accesses
system.cpu.dtb.stage2_mmu.stage2_tlb.read_hits            0                       # DTB read hits
system.cpu.dtb.stage2_mmu.stage2_tlb.read_misses            0                       # DTB read misses
system.cpu.dtb.stage2_mmu.stage2_tlb.walker.walkRequestOrigin_Requested::Data            0                       # Table walker requests started/completed, data/inst
system.cpu.dtb.stage2_mmu.stage2_tlb.walker.walkRequestOrigin_Requested::Inst            0                       # Table walker requests started/completed, data/inst
system.cpu.dtb.stage2_mmu.stage2_tlb.walker.walkRequestOrigin_Requested::total            0                       # Table walker requests started/completed, data/inst
system.cpu.dtb.stage2_mmu.stage2_tlb.walker.walkRequestOrigin_Completed::Data            0                       # Table walker requests started/completed, data/inst
system.cpu.dtb.stage2_mmu.stage2_tlb.walker.walkRequestOrigin_Completed::Inst            0                       # Table walker requests started/completed, data/inst
system.cpu.dtb.stage2_mmu.stage2_tlb.walker.walkRequestOrigin_Completed::total            0                       # Table walker requests started/completed, data/inst
system.cpu.dtb.stage2_mmu.stage2_tlb.walker.walkRequestOrigin::total            0                       # Table walker requests started/completed, data/inst
system.cpu.dtb.stage2_mmu.stage2_tlb.walker.walks            0                       # Table walker walks requested
system.cpu.dtb.stage2_mmu.stage2_tlb.write_accesses            0                       # DTB write accesses
system.cpu.dtb.stage2_mmu.stage2_tlb.write_hits            0                       # DTB write hits
system.cpu.dtb.stage2_mmu.stage2_tlb.write_misses            0                       # DTB write misses
system.cpu.dtb.walker.walkRequestOrigin_Requested::Data            0                       # Table walker requests started/completed, data/inst
system.cpu.dtb.walker.walkRequestOrigin_Requested::Inst            0                       # Table walker requests started/completed, data/inst
system.cpu.dtb.walker.walkRequestOrigin_Requested::total            0                       # Table walker requests started/completed, data/inst
system.cpu.dtb.walker.walkRequestOrigin_Completed::Data            0                       # Table walker requests started/completed, data/inst
system.cpu.dtb.walker.walkRequestOrigin_Completed::Inst            0                       # Table walker requests started/completed, data/inst
system.cpu.dtb.walker.walkRequestOrigin_Completed::total            0                       # Table walker requests started/completed, data/inst
system.cpu.dtb.walker.walkRequestOrigin::total            0                       # Table walker requests started/completed, data/inst
system.cpu.dtb.walker.walks                         0                       # Table walker walks requested
system.cpu.dtb.write_accesses                       0                       # DTB write accesses
system.cpu.dtb.write_hits                           0                       # DTB write hits
system.cpu.dtb.write_misses                         0                       # DTB write misses
system.cpu.fetch.Branches                     3057424                       # Number of branches that fetch encountered
system.cpu.fetch.CacheLines                     34190                       # Number of cache lines fetched
system.cpu.fetch.Cycles                      17103728                       # Number of cycles fetch has run and was not squashing or blocked
system.cpu.fetch.IcacheSquashes                  1336                       # Number of outstanding Icache misses that were squashed
system.cpu.fetch.IcacheWaitRetryStallCycles           42                       # Number of stall cycles due to full MSHR
system.cpu.fetch.Insts                       12246520                       # Number of instructions fetch has processed
system.cpu.fetch.MiscStallCycles                   26                       # Number of cycles fetch has spent waiting on interrupts, or bad addresses, or out of MSHRs
system.cpu.fetch.PendingTrapStallCycles           132                       # Number of stall cycles due to pending traps
system.cpu.fetch.SquashCycles                   55344                       # Number of cycles fetch has spent squashing
system.cpu.fetch.branchRate                  0.177258                       # Number of branch fetches per cycle
system.cpu.fetch.icacheStallCycles              51216                       # Number of cycles fetch is stalled on an Icache miss
system.cpu.fetch.predictedBranches            3016261                       # Number of branches that fetch has predicted taken
system.cpu.fetch.rate                        0.710006                       # Number of inst fetches per cycle
system.cpu.fetch.rateDist::samples           17182816                       # Number of instructions fetched each cycle (Total)
system.cpu.fetch.rateDist::mean              0.714781                       # Number of instructions fetched each cycle (Total)
system.cpu.fetch.rateDist::stdev             1.555559                       # Number of instructions fetched each cycle (Total)
system.cpu.fetch.rateDist::underflows               0      0.00%      0.00% # Number of instructions fetched each cycle (Total)
system.cpu.fetch.rateDist::0                 14145754     82.33%     82.33% # Number of instructions fetched each cycle (Total)
system.cpu.fetch.rateDist::1                     4959      0.03%     82.35% # Number of instructions fetched each cycle (Total)
system.cpu.fetch.rateDist::2                     5155      0.03%     82.38% # Number of instructions fetched each cycle (Total)
system.cpu.fetch.rateDist::3                     6438      0.04%     82.42% # Number of instructions fetched each cycle (Total)
system.cpu.fetch.rateDist::4                  2972958     17.30%     99.72% # Number of instructions fetched each cycle (Total)
system.cpu.fetch.rateDist::5                     5275      0.03%     99.75% # Number of instructions fetched each cycle (Total)
system.cpu.fetch.rateDist::6                     2298      0.01%     99.77% # Number of instructions fetched each cycle (Total)
system.cpu.fetch.rateDist::7                     4457      0.03%     99.79% # Number of instructions fetched each cycle (Total)
system.cpu.fetch.rateDist::8                    35522      0.21%    100.00% # Number of instructions fetched each cycle (Total)
system.cpu.fetch.rateDist::overflows                0      0.00%    100.00% # Number of instructions fetched each cycle (Total)
system.cpu.fetch.rateDist::min_value                0                       # Number of instructions fetched each cycle (Total)
system.cpu.fetch.rateDist::max_value                8                       # Number of instructions fetched each cycle (Total)
system.cpu.fetch.rateDist::total             17182816                       # Number of instructions fetched each cycle (Total)
system.cpu.icache.prefetcher.num_hwpf_issued         1369                       # number of hwpf issued
system.cpu.icache.prefetcher.pfBufferHit           13                       # number of redundant prefetches already in prefetch queue
system.cpu.icache.prefetcher.pfIdentified         1441                       # number of prefetch candidates identified
system.cpu.icache.prefetcher.pfInCache              0                       # number of redundant prefetches already in cache/mshr dropped
system.cpu.icache.prefetcher.pfRemovedFull            0                       # number of prefetches dropped due to prefetch queue size
system.cpu.icache.prefetcher.pfSpanPage           128                       # number of prefetches that crossed the page
system.cpu.idleCycles                           65653                       # Total number of cycles that the CPU has spent unscheduled due to idling
system.cpu.iew.branchMispredicts                22972                       # Number of branch mispredicts detected at execute
system.cpu.iew.exec_branches                  2685986                       # Number of branches executed
system.cpu.iew.exec_nop                         20733                       # number of nop insts executed
system.cpu.iew.exec_rate                     0.628018                       # Inst execution rate
system.cpu.iew.exec_refs                      2700859                       # number of memory reference insts executed
system.cpu.iew.exec_stores                    2659843                       # Number of stores executed
system.cpu.iew.exec_swp                             0                       # number of swp insts executed
system.cpu.iew.iewBlockCycles                   84558                       # Number of cycles IEW is blocking
system.cpu.iew.iewDispLoadInsts                 41789                       # Number of dispatched load instructions
system.cpu.iew.iewDispNonSpecInsts                208                       # Number of dispatched non-speculative instructions
system.cpu.iew.iewDispSquashedInsts             20026                       # Number of squashed instructions skipped by dispatch
system.cpu.iew.iewDispStoreInsts              2684401                       # Number of dispatched store instructions
system.cpu.iew.iewDispatchedInsts            10987364                       # Number of instructions dispatched to IQ
system.cpu.iew.iewExecLoadInsts                 41016                       # Number of load instructions executed
system.cpu.iew.iewExecSquashedInsts             41854                       # Number of squashed instructions skipped in execute
system.cpu.iew.iewExecutedInsts              10832342                       # Number of executed instructions
system.cpu.iew.iewIQFullEvents                     13                       # Number of times the IQ has become full, causing a stall
system.cpu.iew.iewIdleCycles                        0                       # Number of cycles IEW is idle
system.cpu.iew.iewLSQFullEvents                   768                       # Number of times the LSQ has become full, causing a stall
system.cpu.iew.iewSquashCycles                  27055                       # Number of cycles IEW is squashing
system.cpu.iew.iewUnblockCycles                   775                       # Number of cycles IEW is unblocking
system.cpu.iew.lsq.thread0.blockedLoads             0                       # Number of blocked loads due to partial load-store forwarding
system.cpu.iew.lsq.thread0.cacheBlocked        178807                       # Number of times an access to memory failed due to the cache being blocked
system.cpu.iew.lsq.thread0.forwLoads             2961                       # Number of loads that had data forwarded from stores
system.cpu.iew.lsq.thread0.ignoredResponses           10                       # Number of memory responses ignored because the instruction is squashed
system.cpu.iew.lsq.thread0.invAddrLoads             0                       # Number of loads ignored due to an invalid address
system.cpu.iew.lsq.thread0.invAddrSwpfs             0                       # Number of software prefetches ignored due to an invalid address
system.cpu.iew.lsq.thread0.memOrderViolation           43                       # Number of memory ordering violations
system.cpu.iew.lsq.thread0.rescheduledLoads         1124                       # Number of loads that were rescheduled
system.cpu.iew.lsq.thread0.squashedLoads         6404                       # Number of loads squashed
system.cpu.iew.lsq.thread0.squashedStores       228919                       # Number of stores squashed
system.cpu.iew.memOrderViolationEvents             43                       # Number of memory order violations
system.cpu.iew.predictedNotTakenIncorrect         1899                       # Number of branches that were predicted not taken incorrectly
system.cpu.iew.predictedTakenIncorrect          21073                       # Number of branches that were predicted taken incorrectly
system.cpu.iew.wb_consumers                  14888539                       # num instructions consuming a value
system.cpu.iew.wb_count                      10710934                       # cumulative count of insts written-back
system.cpu.iew.wb_fanout                     0.364912                       # average fanout of values written-back
system.cpu.iew.wb_producers                   5433010                       # num instructions producing a value
system.cpu.iew.wb_rate                       0.620979                       # insts written-back per cycle
system.cpu.iew.wb_sent                       10829952                       # cumulative count of insts sent to commit
system.cpu.int_regfile_reads                 13520741                       # number of integer regfile reads
system.cpu.int_regfile_writes                 5494673                       # number of integer regfile writes
system.cpu.ipc                               0.579762                       # IPC: Instructions Per Cycle
system.cpu.ipc_total                         0.579762                       # IPC: Total IPC of All Threads
system.cpu.iq.FU_type_0::No_OpClass                26      0.00%      0.00% # Type of FU issued
system.cpu.iq.FU_type_0::IntAlu               8160346     75.04%     75.04% # Type of FU issued
system.cpu.iq.FU_type_0::IntMult                  386      0.00%     75.05% # Type of FU issued
system.cpu.iq.FU_type_0::IntDiv                    96      0.00%     75.05% # Type of FU issued
system.cpu.iq.FU_type_0::FloatAdd                  11      0.00%     75.05% # Type of FU issued
system.cpu.iq.FU_type_0::FloatCmp                   0      0.00%     75.05% # Type of FU issued
system.cpu.iq.FU_type_0::FloatCvt                   0      0.00%     75.05% # Type of FU issued
system.cpu.iq.FU_type_0::FloatMult                  0      0.00%     75.05% # Type of FU issued
system.cpu.iq.FU_type_0::FloatMultAcc               0      0.00%     75.05% # Type of FU issued
system.cpu.iq.FU_type_0::FloatDiv                   0      0.00%     75.05% # Type of FU issued
system.cpu.iq.FU_type_0::FloatMisc                 53      0.00%     75.05% # Type of FU issued
system.cpu.iq.FU_type_0::FloatSqrt                  0      0.00%     75.05% # Type of FU issued
system.cpu.iq.FU_type_0::SimdAdd                   21      0.00%     75.05% # Type of FU issued
system.cpu.iq.FU_type_0::SimdAddAcc                 0      0.00%     75.05% # Type of FU issued
system.cpu.iq.FU_type_0::SimdAlu                   14      0.00%     75.05% # Type of FU issued
system.cpu.iq.FU_type_0::SimdCmp                   16      0.00%     75.05% # Type of FU issued
system.cpu.iq.FU_type_0::SimdCvt                    0      0.00%     75.05% # Type of FU issued
system.cpu.iq.FU_type_0::SimdMisc                  81      0.00%     75.05% # Type of FU issued
system.cpu.iq.FU_type_0::SimdMult                   0      0.00%     75.05% # Type of FU issued
system.cpu.iq.FU_type_0::SimdMultAcc                0      0.00%     75.05% # Type of FU issued
system.cpu.iq.FU_type_0::SimdShift                  0      0.00%     75.05% # Type of FU issued
system.cpu.iq.FU_type_0::SimdShiftAcc               0      0.00%     75.05% # Type of FU issued
system.cpu.iq.FU_type_0::SimdDiv                    0      0.00%     75.05% # Type of FU issued
system.cpu.iq.FU_type_0::SimdSqrt                   0      0.00%     75.05% # Type of FU issued
system.cpu.iq.FU_type_0::SimdFloatAdd               0      0.00%     75.05% # Type of FU issued
system.cpu.iq.FU_type_0::SimdFloatAlu               0      0.00%     75.05% # Type of FU issued
system.cpu.iq.FU_type_0::SimdFloatCmp               0      0.00%     75.05% # Type of FU issued
system.cpu.iq.FU_type_0::SimdFloatCvt               0      0.00%     75.05% # Type of FU issued
system.cpu.iq.FU_type_0::SimdFloatDiv               0      0.00%     75.05% # Type of FU issued
system.cpu.iq.FU_type_0::SimdFloatMisc              0      0.00%     75.05% # Type of FU issued
system.cpu.iq.FU_type_0::SimdFloatMult              0      0.00%     75.05% # Type of FU issued
system.cpu.iq.FU_type_0::SimdFloatMultAcc            0      0.00%     75.05% # Type of FU issued
system.cpu.iq.FU_type_0::SimdFloatSqrt              0      0.00%     75.05% # Type of FU issued
system.cpu.iq.FU_type_0::SimdReduceAdd              0      0.00%     75.05% # Type of FU issued
system.cpu.iq.FU_type_0::SimdReduceAlu              0      0.00%     75.05% # Type of FU issued
system.cpu.iq.FU_type_0::SimdReduceCmp              0      0.00%     75.05% # Type of FU issued
system.cpu.iq.FU_type_0::SimdFloatReduceAdd            0      0.00%     75.05% # Type of FU issued
system.cpu.iq.FU_type_0::SimdFloatReduceCmp            0      0.00%     75.05% # Type of FU issued
system.cpu.iq.FU_type_0::SimdAes                    0      0.00%     75.05% # Type of FU issued
system.cpu.iq.FU_type_0::SimdAesMix                 0      0.00%     75.05% # Type of FU issued
system.cpu.iq.FU_type_0::SimdSha1Hash               0      0.00%     75.05% # Type of FU issued
system.cpu.iq.FU_type_0::SimdSha1Hash2              0      0.00%     75.05% # Type of FU issued
system.cpu.iq.FU_type_0::SimdSha256Hash             0      0.00%     75.05% # Type of FU issued
system.cpu.iq.FU_type_0::SimdSha256Hash2            0      0.00%     75.05% # Type of FU issued
system.cpu.iq.FU_type_0::SimdShaSigma2              0      0.00%     75.05% # Type of FU issued
system.cpu.iq.FU_type_0::SimdShaSigma3              0      0.00%     75.05% # Type of FU issued
system.cpu.iq.FU_type_0::SimdPredAlu                0      0.00%     75.05% # Type of FU issued
system.cpu.iq.FU_type_0::MemRead                41901      0.39%     75.43% # Type of FU issued
system.cpu.iq.FU_type_0::MemWrite             2671249     24.57%    100.00% # Type of FU issued
system.cpu.iq.FU_type_0::FloatMemRead               0      0.00%    100.00% # Type of FU issued
system.cpu.iq.FU_type_0::FloatMemWrite              0      0.00%    100.00% # Type of FU issued
system.cpu.iq.FU_type_0::IprAccess                  0      0.00%    100.00% # Type of FU issued
system.cpu.iq.FU_type_0::InstPrefetch               0      0.00%    100.00% # Type of FU issued
system.cpu.iq.FU_type_0::total               10874200                       # Type of FU issued
system.cpu.iq.fp_alu_accesses                       0                       # Number of floating point alu accesses
system.cpu.iq.fp_inst_queue_reads                   0                       # Number of floating instruction queue reads
system.cpu.iq.fp_inst_queue_wakeup_accesses            0                       # Number of floating instruction queue wakeup accesses
system.cpu.iq.fp_inst_queue_writes                  0                       # Number of floating instruction queue writes
system.cpu.iq.fu_busy_cnt                        3925                       # FU busy when requested
system.cpu.iq.fu_busy_rate                   0.000361                       # FU busy rate (busy events/executed inst)
system.cpu.iq.fu_full::No_OpClass                   0      0.00%      0.00% # attempts to use FU when none available
system.cpu.iq.fu_full::IntAlu                    1275     32.48%     32.48% # attempts to use FU when none available
system.cpu.iq.fu_full::IntMult                      2      0.05%     32.54% # attempts to use FU when none available
system.cpu.iq.fu_full::IntDiv                       0      0.00%     32.54% # attempts to use FU when none available
system.cpu.iq.fu_full::FloatAdd                     0      0.00%     32.54% # attempts to use FU when none available
system.cpu.iq.fu_full::FloatCmp                     0      0.00%     32.54% # attempts to use FU when none available
system.cpu.iq.fu_full::FloatCvt                     0      0.00%     32.54% # attempts to use FU when none available
system.cpu.iq.fu_full::FloatMult                    0      0.00%     32.54% # attempts to use FU when none available
system.cpu.iq.fu_full::FloatMultAcc                 0      0.00%     32.54% # attempts to use FU when none available
system.cpu.iq.fu_full::FloatDiv                     0      0.00%     32.54% # attempts to use FU when none available
system.cpu.iq.fu_full::FloatMisc                    0      0.00%     32.54% # attempts to use FU when none available
system.cpu.iq.fu_full::FloatSqrt                    0      0.00%     32.54% # attempts to use FU when none available
system.cpu.iq.fu_full::SimdAdd                      0      0.00%     32.54% # attempts to use FU when none available
system.cpu.iq.fu_full::SimdAddAcc                   0      0.00%     32.54% # attempts to use FU when none available
system.cpu.iq.fu_full::SimdAlu                      1      0.03%     32.56% # attempts to use FU when none available
system.cpu.iq.fu_full::SimdCmp                      2      0.05%     32.61% # attempts to use FU when none available
system.cpu.iq.fu_full::SimdCvt                      0      0.00%     32.61% # attempts to use FU when none available
system.cpu.iq.fu_full::SimdMisc                     0      0.00%     32.61% # attempts to use FU when none available
system.cpu.iq.fu_full::SimdMult                     0      0.00%     32.61% # attempts to use FU when none available
system.cpu.iq.fu_full::SimdMultAcc                  0      0.00%     32.61% # attempts to use FU when none available
system.cpu.iq.fu_full::SimdShift                    0      0.00%     32.61% # attempts to use FU when none available
system.cpu.iq.fu_full::SimdShiftAcc                 0      0.00%     32.61% # attempts to use FU when none available
system.cpu.iq.fu_full::SimdDiv                      0      0.00%     32.61% # attempts to use FU when none available
system.cpu.iq.fu_full::SimdSqrt                     0      0.00%     32.61% # attempts to use FU when none available
system.cpu.iq.fu_full::SimdFloatAdd                 0      0.00%     32.61% # attempts to use FU when none available
system.cpu.iq.fu_full::SimdFloatAlu                 0      0.00%     32.61% # attempts to use FU when none available
system.cpu.iq.fu_full::SimdFloatCmp                 0      0.00%     32.61% # attempts to use FU when none available
system.cpu.iq.fu_full::SimdFloatCvt                 0      0.00%     32.61% # attempts to use FU when none available
system.cpu.iq.fu_full::SimdFloatDiv                 0      0.00%     32.61% # attempts to use FU when none available
system.cpu.iq.fu_full::SimdFloatMisc                0      0.00%     32.61% # attempts to use FU when none available
system.cpu.iq.fu_full::SimdFloatMult                0      0.00%     32.61% # attempts to use FU when none available
system.cpu.iq.fu_full::SimdFloatMultAcc             0      0.00%     32.61% # attempts to use FU when none available
system.cpu.iq.fu_full::SimdFloatSqrt                0      0.00%     32.61% # attempts to use FU when none available
system.cpu.iq.fu_full::SimdReduceAdd                0      0.00%     32.61% # attempts to use FU when none available
system.cpu.iq.fu_full::SimdReduceAlu                0      0.00%     32.61% # attempts to use FU when none available
system.cpu.iq.fu_full::SimdReduceCmp                0      0.00%     32.61% # attempts to use FU when none available
system.cpu.iq.fu_full::SimdFloatReduceAdd            0      0.00%     32.61% # attempts to use FU when none available
system.cpu.iq.fu_full::SimdFloatReduceCmp            0      0.00%     32.61% # attempts to use FU when none available
system.cpu.iq.fu_full::SimdAes                      0      0.00%     32.61% # attempts to use FU when none available
system.cpu.iq.fu_full::SimdAesMix                   0      0.00%     32.61% # attempts to use FU when none available
system.cpu.iq.fu_full::SimdSha1Hash                 0      0.00%     32.61% # attempts to use FU when none available
system.cpu.iq.fu_full::SimdSha1Hash2                0      0.00%     32.61% # attempts to use FU when none available
system.cpu.iq.fu_full::SimdSha256Hash               0      0.00%     32.61% # attempts to use FU when none available
system.cpu.iq.fu_full::SimdSha256Hash2              0      0.00%     32.61% # attempts to use FU when none available
system.cpu.iq.fu_full::SimdShaSigma2                0      0.00%     32.61% # attempts to use FU when none available
system.cpu.iq.fu_full::SimdShaSigma3                0      0.00%     32.61% # attempts to use FU when none available
system.cpu.iq.fu_full::SimdPredAlu                  0      0.00%     32.61% # attempts to use FU when none available
system.cpu.iq.fu_full::MemRead                   1702     43.36%     75.97% # attempts to use FU when none available
system.cpu.iq.fu_full::MemWrite                   943     24.03%    100.00% # attempts to use FU when none available
system.cpu.iq.fu_full::FloatMemRead                 0      0.00%    100.00% # attempts to use FU when none available
system.cpu.iq.fu_full::FloatMemWrite                0      0.00%    100.00% # attempts to use FU when none available
system.cpu.iq.fu_full::IprAccess                    0      0.00%    100.00% # attempts to use FU when none available
system.cpu.iq.fu_full::InstPrefetch                 0      0.00%    100.00% # attempts to use FU when none available
system.cpu.iq.int_alu_accesses               10875426                       # Number of integer alu accesses
system.cpu.iq.int_inst_queue_reads           38930265                       # Number of integer instruction queue reads
system.cpu.iq.int_inst_queue_wakeup_accesses     10708646                       # Number of integer instruction queue wakeup accesses
system.cpu.iq.int_inst_queue_writes          11902785                       # Number of integer instruction queue writes
system.cpu.iq.iqInstsAdded                   10966423                       # Number of instructions added to the IQ (excludes non-spec)
system.cpu.iq.iqInstsIssued                  10874200                       # Number of instructions issued
system.cpu.iq.iqNonSpecInstsAdded                 208                       # Number of non-speculative instructions added to the IQ
system.cpu.iq.iqSquashedInstsExamined          939444                       # Number of squashed instructions iterated over during squash; mainly for profiling
system.cpu.iq.iqSquashedInstsIssued               408                       # Number of squashed instructions issued
system.cpu.iq.iqSquashedNonSpecRemoved             34                       # Number of squashed non-spec instructions that were removed
system.cpu.iq.iqSquashedOperandsExamined       475935                       # Number of squashed operands that are examined and possibly removed from graph
system.cpu.iq.issued_per_cycle::samples      17182816                       # Number of insts issued each cycle
system.cpu.iq.issued_per_cycle::mean         0.632853                       # Number of insts issued each cycle
system.cpu.iq.issued_per_cycle::stdev        1.338000                       # Number of insts issued each cycle
system.cpu.iq.issued_per_cycle::underflows            0      0.00%      0.00% # Number of insts issued each cycle
system.cpu.iq.issued_per_cycle::0            13624695     79.29%     79.29% # Number of insts issued each cycle
system.cpu.iq.issued_per_cycle::1              503177      2.93%     82.22% # Number of insts issued each cycle
system.cpu.iq.issued_per_cycle::2              544399      3.17%     85.39% # Number of insts issued each cycle
system.cpu.iq.issued_per_cycle::3              793421      4.62%     90.01% # Number of insts issued each cycle
system.cpu.iq.issued_per_cycle::4             1699307      9.89%     99.90% # Number of insts issued each cycle
system.cpu.iq.issued_per_cycle::5                8053      0.05%     99.94% # Number of insts issued each cycle
system.cpu.iq.issued_per_cycle::6                5580      0.03%     99.98% # Number of insts issued each cycle
system.cpu.iq.issued_per_cycle::7                2483      0.01%     99.99% # Number of insts issued each cycle
system.cpu.iq.issued_per_cycle::8                1701      0.01%    100.00% # Number of insts issued each cycle
system.cpu.iq.issued_per_cycle::overflows            0      0.00%    100.00% # Number of insts issued each cycle
system.cpu.iq.issued_per_cycle::min_value            0                       # Number of insts issued each cycle
system.cpu.iq.issued_per_cycle::max_value            8                       # Number of insts issued each cycle
system.cpu.iq.issued_per_cycle::total        17182816                       # Number of insts issued each cycle
system.cpu.iq.rate                           0.630444                       # Inst issue rate
system.cpu.iq.vec_alu_accesses                   2673                       # Number of vector alu accesses
system.cpu.iq.vec_inst_queue_reads               5280                       # Number of vector instruction queue reads
system.cpu.iq.vec_inst_queue_wakeup_accesses         2288                       # Number of vector instruction queue wakeup accesses
system.cpu.iq.vec_inst_queue_writes              3333                       # Number of vector instruction queue writes
system.cpu.itb.accesses                             0                       # DTB accesses
system.cpu.itb.align_faults                         0                       # Number of TLB faults due to alignment restrictions
system.cpu.itb.domain_faults                        0                       # Number of TLB faults due to domain restrictions
system.cpu.itb.flush_entries                        0                       # Number of entries that have been flushed from TLB
system.cpu.itb.flush_tlb                            0                       # Number of times complete TLB was flushed
system.cpu.itb.flush_tlb_asid                       0                       # Number of times TLB was flushed by ASID
system.cpu.itb.flush_tlb_mva                        0                       # Number of times TLB was flushed by MVA
system.cpu.itb.flush_tlb_mva_asid                   0                       # Number of times TLB was flushed by MVA & ASID
system.cpu.itb.hits                                 0                       # DTB hits
system.cpu.itb.inst_accesses                        0                       # ITB inst accesses
system.cpu.itb.inst_hits                            0                       # ITB inst hits
system.cpu.itb.inst_misses                          0                       # ITB inst misses
system.cpu.itb.misses                               0                       # DTB misses
system.cpu.itb.perms_faults                         0                       # Number of TLB faults due to permissions restrictions
system.cpu.itb.prefetch_faults                      0                       # Number of TLB faults due to prefetch
system.cpu.itb.read_accesses                        0                       # DTB read accesses
system.cpu.itb.read_hits                            0                       # DTB read hits
system.cpu.itb.read_misses                          0                       # DTB read misses
system.cpu.itb.stage2_mmu.stage2_tlb.accesses            0                       # DTB accesses
system.cpu.itb.stage2_mmu.stage2_tlb.align_faults            0                       # Number of TLB faults due to alignment restrictions
system.cpu.itb.stage2_mmu.stage2_tlb.domain_faults            0                       # Number of TLB faults due to domain restrictions
system.cpu.itb.stage2_mmu.stage2_tlb.flush_entries            0                       # Number of entries that have been flushed from TLB
system.cpu.itb.stage2_mmu.stage2_tlb.flush_tlb            0                       # Number of times complete TLB was flushed
system.cpu.itb.stage2_mmu.stage2_tlb.flush_tlb_asid            0                       # Number of times TLB was flushed by ASID
system.cpu.itb.stage2_mmu.stage2_tlb.flush_tlb_mva            0                       # Number of times TLB was flushed by MVA
system.cpu.itb.stage2_mmu.stage2_tlb.flush_tlb_mva_asid            0                       # Number of times TLB was flushed by MVA & ASID
system.cpu.itb.stage2_mmu.stage2_tlb.hits            0                       # DTB hits
system.cpu.itb.stage2_mmu.stage2_tlb.inst_accesses            0                       # ITB inst accesses
system.cpu.itb.stage2_mmu.stage2_tlb.inst_hits            0                       # ITB inst hits
system.cpu.itb.stage2_mmu.stage2_tlb.inst_misses            0                       # ITB inst misses
system.cpu.itb.stage2_mmu.stage2_tlb.misses            0                       # DTB misses
system.cpu.itb.stage2_mmu.stage2_tlb.perms_faults            0                       # Number of TLB faults due to permissions restrictions
system.cpu.itb.stage2_mmu.stage2_tlb.prefetch_faults            0                       # Number of TLB faults due to prefetch
system.cpu.itb.stage2_mmu.stage2_tlb.read_accesses            0                       # DTB read accesses
system.cpu.itb.stage2_mmu.stage2_tlb.read_hits            0                       # DTB read hits
system.cpu.itb.stage2_mmu.stage2_tlb.read_misses            0                       # DTB read misses
system.cpu.itb.stage2_mmu.stage2_tlb.walker.walkRequestOrigin_Requested::Data            0                       # Table walker requests started/completed, data/inst
system.cpu.itb.stage2_mmu.stage2_tlb.walker.walkRequestOrigin_Requested::Inst            0                       # Table walker requests started/completed, data/inst
system.cpu.itb.stage2_mmu.stage2_tlb.walker.walkRequestOrigin_Requested::total            0                       # Table walker requests started/completed, data/inst
system.cpu.itb.stage2_mmu.stage2_tlb.walker.walkRequestOrigin_Completed::Data            0                       # Table walker requests started/completed, data/inst
system.cpu.itb.stage2_mmu.stage2_tlb.walker.walkRequestOrigin_Completed::Inst            0                       # Table walker requests started/completed, data/inst
system.cpu.itb.stage2_mmu.stage2_tlb.walker.walkRequestOrigin_Completed::total            0                       # Table walker requests started/completed, data/inst
system.cpu.itb.stage2_mmu.stage2_tlb.walker.walkRequestOrigin::total            0                       # Table walker requests started/completed, data/inst
system.cpu.itb.stage2_mmu.stage2_tlb.walker.walks            0                       # Table walker walks requested
system.cpu.itb.stage2_mmu.stage2_tlb.write_accesses            0                       # DTB write accesses
system.cpu.itb.stage2_mmu.stage2_tlb.write_hits            0                       # DTB write hits
system.cpu.itb.stage2_mmu.stage2_tlb.write_misses            0                       # DTB write misses
system.cpu.itb.walker.walkRequestOrigin_Requested::Data            0                       # Table walker requests started/completed, data/inst
system.cpu.itb.walker.walkRequestOrigin_Requested::Inst            0                       # Table walker requests started/completed, data/inst
system.cpu.itb.walker.walkRequestOrigin_Requested::total            0                       # Table walker requests started/completed, data/inst
system.cpu.itb.walker.walkRequestOrigin_Completed::Data            0                       # Table walker requests started/completed, data/inst
system.cpu.itb.walker.walkRequestOrigin_Completed::Inst            0                       # Table walker requests started/completed, data/inst
system.cpu.itb.walker.walkRequestOrigin_Completed::total            0                       # Table walker requests started/completed, data/inst
system.cpu.itb.walker.walkRequestOrigin::total            0                       # Table walker requests started/completed, data/inst
system.cpu.itb.walker.walks                         0                       # Table walker walks requested
system.cpu.itb.write_accesses                       0                       # DTB write accesses
system.cpu.itb.write_hits                           0                       # DTB write hits
system.cpu.itb.write_misses                         0                       # DTB write misses
system.cpu.memDep0.conflictingLoads              2152                       # Number of conflicting loads.
system.cpu.memDep0.conflictingStores             1326                       # Number of conflicting stores.
system.cpu.memDep0.insertedLoads                41789                       # Number of loads inserted to the mem dependence unit.
system.cpu.memDep0.insertedStores             2684401                       # Number of stores inserted to the mem dependence unit.
system.cpu.misc_regfile_reads                 8008372                       # number of misc regfile reads
system.cpu.misc_regfile_writes                    561                       # number of misc regfile writes
system.cpu.numCycles                         17248469                       # number of cpu cycles simulated
system.cpu.numWorkItemsCompleted                    0                       # number of work items this cpu completed
system.cpu.numWorkItemsStarted                      0                       # number of work items this cpu started
system.cpu.rename.BlockCycles                   86126                       # Number of cycles rename is blocking
system.cpu.rename.CommittedMaps              12530631                       # Number of HB maps that are committed
system.cpu.rename.IQFullEvents                     58                       # Number of times rename has blocked due to IQ full
system.cpu.rename.IdleCycles                   669272                       # Number of cycles rename is idle
system.cpu.rename.LQFullEvents                   1550                       # Number of times rename has blocked due to LQ full
system.cpu.rename.ROBFullEvents                    14                       # Number of times rename has blocked due to ROB full
system.cpu.rename.RenameLookups              22085182                       # Number of register rename lookups that rename has made
system.cpu.rename.RenamedInsts               11122462                       # Number of instructions processed by rename
system.cpu.rename.RenamedOperands            13866392                       # Number of destination operands rename has renamed
system.cpu.rename.RunCycles                   1299079                       # Number of cycles rename is running
system.cpu.rename.SQFullEvents               15085221                       # Number of times rename has blocked due to SQ full
system.cpu.rename.SquashCycles                  27055                       # Number of cycles rename is squashing
system.cpu.rename.UnblockCycles              15081022                       # Number of cycles rename is unblocking
system.cpu.rename.UndoneMaps                  1335726                       # Number of HB maps that are undone due to squashing
system.cpu.rename.int_rename_lookups         13835526                       # Number of integer rename lookups
system.cpu.rename.serializeStallCycles          20262                       # count of cycles rename stalled for serializing inst
system.cpu.rename.serializingInsts                868                       # count of serializing insts renamed
system.cpu.rename.skidInsts                   4495794                       # count of insts added to the skid buffer
system.cpu.rename.tempSerializingInsts            207                       # count of temporary serializing insts renamed
system.cpu.rename.vec_rename_lookups             2701                       # Number of vector rename lookups
system.cpu.rob.rob_reads                     27844872                       # The number of ROB reads
system.cpu.rob.rob_writes                    21802334                       # The number of ROB writes
system.cpu.timesIdled                             615                       # Number of times that the entire CPU went into an idle state and unscheduled itself
system.cpu.vec_regfile_reads                     2236                       # number of vector regfile reads
system.cpu.vec_regfile_writes                     183                       # number of vector regfile writes
system.cpu.workload.numSyscalls                    35                       # Number of system calls
system.membus.snoop_filter.hit_multi_requests            0                       # Number of requests hitting in the snoop filter with multiple (>1) holders of the requested data.
system.membus.snoop_filter.hit_multi_snoops            0                       # Number of snoops hitting in the snoop filter with multiple (>1) holders of the requested data.
system.membus.snoop_filter.hit_single_requests       271325                       # Number of requests hitting in the snoop filter with a single holder of the requested data.
system.membus.snoop_filter.hit_single_snoops            0                       # Number of snoops hitting in the snoop filter with a single holder of the requested data.
system.membus.snoop_filter.tot_requests        576110                       # Total number of requests made to the snoop filter.
system.membus.snoop_filter.tot_snoops               0                       # Total number of snoops made to the snoop filter.
system.tol2bus.snoop_filter.hit_multi_requests            2                       # Number of requests hitting in the snoop filter with multiple (>1) holders of the requested data.
system.tol2bus.snoop_filter.hit_multi_snoops            0                       # Number of snoops hitting in the snoop filter with multiple (>1) holders of the requested data.
system.tol2bus.snoop_filter.hit_single_requests       303302                       # Number of requests hitting in the snoop filter with a single holder of the requested data.
system.tol2bus.snoop_filter.hit_single_snoops          691                       # Number of snoops hitting in the snoop filter with a single holder of the requested data.
system.tol2bus.snoop_filter.tot_requests       608321                       # Total number of requests made to the snoop filter.
system.tol2bus.snoop_filter.tot_snoops            691                       # Total number of snoops made to the snoop filter.
system.membus.trans_dist::ReadResp                996                       # Transaction distribution
system.membus.trans_dist::WritebackDirty       271049                       # Transaction distribution
system.membus.trans_dist::CleanEvict              276                       # Transaction distribution
system.membus.trans_dist::ReadExReq            303708                       # Transaction distribution
system.membus.trans_dist::ReadExResp           303707                       # Transaction distribution
system.membus.trans_dist::ReadSharedReq           996                       # Transaction distribution
system.membus.trans_dist::InvalidateReq            81                       # Transaction distribution
system.membus.pkt_count_system.l2.mem_side::system.mem_ctrls.port       880813                       # Packet count per connected master and slave (bytes)
system.membus.pkt_count::total                 880813                       # Packet count per connected master and slave (bytes)
system.membus.pkt_size_system.l2.mem_side::system.mem_ctrls.port     36848128                       # Cumulative packet size per connected master and slave (bytes)
system.membus.pkt_size::total                36848128                       # Cumulative packet size per connected master and slave (bytes)
system.membus.snoops                                0                       # Total snoops (count)
system.membus.snoopTraffic                          0                       # Total snoop traffic (bytes)
system.membus.snoop_fanout::samples            304785                       # Request fanout histogram
system.membus.snoop_fanout::mean                    0                       # Request fanout histogram
system.membus.snoop_fanout::stdev                   0                       # Request fanout histogram
system.membus.snoop_fanout::underflows              0      0.00%      0.00% # Request fanout histogram
system.membus.snoop_fanout::0                  304785    100.00%    100.00% # Request fanout histogram
system.membus.snoop_fanout::1                       0      0.00%    100.00% # Request fanout histogram
system.membus.snoop_fanout::overflows               0      0.00%    100.00% # Request fanout histogram
system.membus.snoop_fanout::min_value               0                       # Request fanout histogram
system.membus.snoop_fanout::max_value               0                       # Request fanout histogram
system.membus.snoop_fanout::total              304785                       # Request fanout histogram
system.membus.reqLayer0.occupancy          1737500000                       # Layer occupancy (ticks)
system.membus.reqLayer0.utilization              20.1                       # Layer utilization (%)
system.membus.respLayer1.occupancy         1591228500                       # Layer occupancy (ticks)
system.membus.respLayer1.utilization             18.5                       # Layer utilization (%)
system.membus.power_state.pwrStateResidencyTicks::UNDEFINED   8624233500                       # Cumulative time (in ticks) in various power states
system.tol2bus.trans_dist::ReadResp              1228                       # Transaction distribution
system.tol2bus.trans_dist::WritebackDirty       573883                       # Transaction distribution
system.tol2bus.trans_dist::WritebackClean          294                       # Transaction distribution
system.tol2bus.trans_dist::CleanEvict            1142                       # Transaction distribution
system.tol2bus.trans_dist::ReadExReq           303710                       # Transaction distribution
system.tol2bus.trans_dist::ReadExResp          303708                       # Transaction distribution
system.tol2bus.trans_dist::ReadCleanReq           984                       # Transaction distribution
system.tol2bus.trans_dist::ReadSharedReq          244                       # Transaction distribution
system.tol2bus.trans_dist::InvalidateReq           81                       # Transaction distribution
system.tol2bus.trans_dist::InvalidateResp           81                       # Transaction distribution
system.tol2bus.pkt_count_system.cpu.icache.mem_side::system.l2.cpu_side         2262                       # Packet count per connected master and slave (bytes)
system.tol2bus.pkt_count_system.cpu.dcache.mem_side::system.l2.cpu_side       911076                       # Packet count per connected master and slave (bytes)
system.tol2bus.pkt_count::total                913338                       # Packet count per connected master and slave (bytes)
system.tol2bus.pkt_size_system.cpu.icache.mem_side::system.l2.cpu_side        81792                       # Cumulative packet size per connected master and slave (bytes)
system.tol2bus.pkt_size_system.cpu.dcache.mem_side::system.l2.cpu_side     38834240                       # Cumulative packet size per connected master and slave (bytes)
system.tol2bus.pkt_size::total               38916032                       # Cumulative packet size per connected master and slave (bytes)
system.tol2bus.snoops                          272017                       # Total snoops (count)
system.tol2bus.snoopTraffic                  17347200                       # Total snoop traffic (bytes)
system.tol2bus.snoop_fanout::samples           577036                       # Request fanout histogram
system.tol2bus.snoop_fanout::mean            0.001201                       # Request fanout histogram
system.tol2bus.snoop_fanout::stdev           0.034634                       # Request fanout histogram
system.tol2bus.snoop_fanout::underflows             0      0.00%      0.00% # Request fanout histogram
system.tol2bus.snoop_fanout::0                 576343     99.88%     99.88% # Request fanout histogram
system.tol2bus.snoop_fanout::1                    693      0.12%    100.00% # Request fanout histogram
system.tol2bus.snoop_fanout::2                      0      0.00%    100.00% # Request fanout histogram
system.tol2bus.snoop_fanout::overflows              0      0.00%    100.00% # Request fanout histogram
system.tol2bus.snoop_fanout::min_value              0                       # Request fanout histogram
system.tol2bus.snoop_fanout::max_value              1                       # Request fanout histogram
system.tol2bus.snoop_fanout::total             577036                       # Request fanout histogram
system.tol2bus.reqLayer0.occupancy          607316873                       # Layer occupancy (ticks)
system.tol2bus.reqLayer0.utilization              7.0                       # Layer utilization (%)
system.tol2bus.respLayer1.occupancy         455968999                       # Layer occupancy (ticks)
system.tol2bus.respLayer1.utilization             5.3                       # Layer utilization (%)
system.tol2bus.respLayer0.occupancy           1476000                       # Layer occupancy (ticks)
system.tol2bus.respLayer0.utilization             0.0                       # Layer utilization (%)
system.tol2bus.power_state.pwrStateResidencyTicks::UNDEFINED   8624233500                       # Cumulative time (in ticks) in various power states
system.voltage_domain.voltage                       1                       # Voltage in Volts
system.clk_domain.clock                          1000                       # Clock period in ticks
system.l2.demand_hits::.cpu.inst                   79                       # number of demand (read+write) hits
system.l2.demand_hits::.cpu.data                   90                       # number of demand (read+write) hits
system.l2.demand_hits::.cpu.icache.prefetcher           64                       # number of demand (read+write) hits
system.l2.demand_hits::total                      233                       # number of demand (read+write) hits
system.l2.overall_hits::.cpu.inst                  79                       # number of overall hits
system.l2.overall_hits::.cpu.data                  90                       # number of overall hits
system.l2.overall_hits::.cpu.icache.prefetcher           64                       # number of overall hits
system.l2.overall_hits::total                     233                       # number of overall hits
system.l2.demand_misses::.cpu.inst                841                       # number of demand (read+write) misses
system.l2.demand_misses::.cpu.data             303864                       # number of demand (read+write) misses
system.l2.demand_misses::total                 304705                       # number of demand (read+write) misses
system.l2.overall_misses::.cpu.inst               841                       # number of overall misses
system.l2.overall_misses::.cpu.data            303864                       # number of overall misses
system.l2.overall_misses::total                304705                       # number of overall misses
system.l2.demand_miss_latency::.cpu.inst     65127000                       # number of demand (read+write) miss cycles
system.l2.demand_miss_latency::.cpu.data  31770411000                       # number of demand (read+write) miss cycles
system.l2.demand_miss_latency::total      31835538000                       # number of demand (read+write) miss cycles
system.l2.overall_miss_latency::.cpu.inst     65127000                       # number of overall miss cycles
system.l2.overall_miss_latency::.cpu.data  31770411000                       # number of overall miss cycles
system.l2.overall_miss_latency::total     31835538000                       # number of overall miss cycles
system.l2.demand_accesses::.cpu.inst              920                       # number of demand (read+write) accesses
system.l2.demand_accesses::.cpu.data           303954                       # number of demand (read+write) accesses
system.l2.demand_accesses::.cpu.icache.prefetcher           64                       # number of demand (read+write) accesses
system.l2.demand_accesses::total               304938                       # number of demand (read+write) accesses
system.l2.overall_accesses::.cpu.inst             920                       # number of overall (read+write) accesses
system.l2.overall_accesses::.cpu.data          303954                       # number of overall (read+write) accesses
system.l2.overall_accesses::.cpu.icache.prefetcher           64                       # number of overall (read+write) accesses
system.l2.overall_accesses::total              304938                       # number of overall (read+write) accesses
system.l2.demand_miss_rate::.cpu.inst        0.914130                       # miss rate for demand accesses
system.l2.demand_miss_rate::.cpu.data        0.999704                       # miss rate for demand accesses
system.l2.demand_miss_rate::total            0.999236                       # miss rate for demand accesses
system.l2.overall_miss_rate::.cpu.inst       0.914130                       # miss rate for overall accesses
system.l2.overall_miss_rate::.cpu.data       0.999704                       # miss rate for overall accesses
system.l2.overall_miss_rate::total           0.999236                       # miss rate for overall accesses
system.l2.demand_avg_miss_latency::.cpu.inst 77439.952438                       # average overall miss latency
system.l2.demand_avg_miss_latency::.cpu.data 104554.705395                       # average overall miss latency
system.l2.demand_avg_miss_latency::total 104479.867413                       # average overall miss latency
system.l2.overall_avg_miss_latency::.cpu.inst 77439.952438                       # average overall miss latency
system.l2.overall_avg_miss_latency::.cpu.data 104554.705395                       # average overall miss latency
system.l2.overall_avg_miss_latency::total 104479.867413                       # average overall miss latency
system.l2.blocked_cycles::no_mshrs                  0                       # number of cycles access was blocked
system.l2.blocked_cycles::no_targets                0                       # number of cycles access was blocked
system.l2.blocked::no_mshrs                         0                       # number of cycles access was blocked
system.l2.blocked::no_targets                       0                       # number of cycles access was blocked
system.l2.avg_blocked_cycles::no_mshrs            nan                       # average number of cycles each access was blocked
system.l2.avg_blocked_cycles::no_targets          nan                       # average number of cycles each access was blocked
system.l2.writebacks::.writebacks              271050                       # number of writebacks
system.l2.writebacks::total                    271050                       # number of writebacks
system.l2.demand_mshr_misses::.cpu.inst           841                       # number of demand (read+write) MSHR misses
system.l2.demand_mshr_misses::.cpu.data        303864                       # number of demand (read+write) MSHR misses
system.l2.demand_mshr_misses::total            304705                       # number of demand (read+write) MSHR misses
system.l2.overall_mshr_misses::.cpu.inst          841                       # number of overall MSHR misses
system.l2.overall_mshr_misses::.cpu.data       303864                       # number of overall MSHR misses
system.l2.overall_mshr_misses::total           304705                       # number of overall MSHR misses
system.l2.demand_mshr_miss_latency::.cpu.inst     56717000                       # number of demand (read+write) MSHR miss cycles
system.l2.demand_mshr_miss_latency::.cpu.data  28731791000                       # number of demand (read+write) MSHR miss cycles
system.l2.demand_mshr_miss_latency::total  28788508000                       # number of demand (read+write) MSHR miss cycles
system.l2.overall_mshr_miss_latency::.cpu.inst     56717000                       # number of overall MSHR miss cycles
system.l2.overall_mshr_miss_latency::.cpu.data  28731791000                       # number of overall MSHR miss cycles
system.l2.overall_mshr_miss_latency::total  28788508000                       # number of overall MSHR miss cycles
system.l2.demand_mshr_miss_rate::.cpu.inst     0.914130                       # mshr miss rate for demand accesses
system.l2.demand_mshr_miss_rate::.cpu.data     0.999704                       # mshr miss rate for demand accesses
system.l2.demand_mshr_miss_rate::total       0.999236                       # mshr miss rate for demand accesses
system.l2.overall_mshr_miss_rate::.cpu.inst     0.914130                       # mshr miss rate for overall accesses
system.l2.overall_mshr_miss_rate::.cpu.data     0.999704                       # mshr miss rate for overall accesses
system.l2.overall_mshr_miss_rate::total      0.999236                       # mshr miss rate for overall accesses
system.l2.demand_avg_mshr_miss_latency::.cpu.inst 67439.952438                       # average overall mshr miss latency
system.l2.demand_avg_mshr_miss_latency::.cpu.data 94554.771213                       # average overall mshr miss latency
system.l2.demand_avg_mshr_miss_latency::total 94479.933050                       # average overall mshr miss latency
system.l2.overall_avg_mshr_miss_latency::.cpu.inst 67439.952438                       # average overall mshr miss latency
system.l2.overall_avg_mshr_miss_latency::.cpu.data 94554.771213                       # average overall mshr miss latency
system.l2.overall_avg_mshr_miss_latency::total 94479.933050                       # average overall mshr miss latency
system.l2.replacements                         272017                       # number of replacements
system.l2.WritebackDirty_hits::.writebacks       302833                       # number of WritebackDirty hits
system.l2.WritebackDirty_hits::total           302833                       # number of WritebackDirty hits
system.l2.WritebackDirty_accesses::.writebacks       302833                       # number of WritebackDirty accesses(hits+misses)
system.l2.WritebackDirty_accesses::total       302833                       # number of WritebackDirty accesses(hits+misses)
system.l2.WritebackClean_hits::.writebacks          293                       # number of WritebackClean hits
system.l2.WritebackClean_hits::total              293                       # number of WritebackClean hits
system.l2.WritebackClean_accesses::.writebacks          293                       # number of WritebackClean accesses(hits+misses)
system.l2.WritebackClean_accesses::total          293                       # number of WritebackClean accesses(hits+misses)
system.l2.ReadExReq_hits::.cpu.data                 1                       # number of ReadExReq hits
system.l2.ReadExReq_hits::total                     1                       # number of ReadExReq hits
system.l2.ReadExReq_misses::.cpu.data          303709                       # number of ReadExReq misses
system.l2.ReadExReq_misses::total              303709                       # number of ReadExReq misses
system.l2.ReadExReq_miss_latency::.cpu.data  31757180500                       # number of ReadExReq miss cycles
system.l2.ReadExReq_miss_latency::total   31757180500                       # number of ReadExReq miss cycles
system.l2.ReadExReq_accesses::.cpu.data        303710                       # number of ReadExReq accesses(hits+misses)
system.l2.ReadExReq_accesses::total            303710                       # number of ReadExReq accesses(hits+misses)
system.l2.ReadExReq_miss_rate::.cpu.data     0.999997                       # miss rate for ReadExReq accesses
system.l2.ReadExReq_miss_rate::total         0.999997                       # miss rate for ReadExReq accesses
system.l2.ReadExReq_avg_miss_latency::.cpu.data 104564.502534                       # average ReadExReq miss latency
system.l2.ReadExReq_avg_miss_latency::total 104564.502534                       # average ReadExReq miss latency
system.l2.ReadExReq_mshr_misses::.cpu.data       303709                       # number of ReadExReq MSHR misses
system.l2.ReadExReq_mshr_misses::total         303709                       # number of ReadExReq MSHR misses
system.l2.ReadExReq_mshr_miss_latency::.cpu.data  28720110500                       # number of ReadExReq MSHR miss cycles
system.l2.ReadExReq_mshr_miss_latency::total  28720110500                       # number of ReadExReq MSHR miss cycles
system.l2.ReadExReq_mshr_miss_rate::.cpu.data     0.999997                       # mshr miss rate for ReadExReq accesses
system.l2.ReadExReq_mshr_miss_rate::total     0.999997                       # mshr miss rate for ReadExReq accesses
system.l2.ReadExReq_avg_mshr_miss_latency::.cpu.data 94564.568386                       # average ReadExReq mshr miss latency
system.l2.ReadExReq_avg_mshr_miss_latency::total 94564.568386                       # average ReadExReq mshr miss latency
system.l2.ReadCleanReq_hits::.cpu.inst             79                       # number of ReadCleanReq hits
system.l2.ReadCleanReq_hits::.cpu.icache.prefetcher           64                       # number of ReadCleanReq hits
system.l2.ReadCleanReq_hits::total                143                       # number of ReadCleanReq hits
system.l2.ReadCleanReq_misses::.cpu.inst          841                       # number of ReadCleanReq misses
system.l2.ReadCleanReq_misses::total              841                       # number of ReadCleanReq misses
[...]
system.cpu.dcache.overall_miss_latency::total 208765750204                       # number of overall miss cycles
system.cpu.dcache.demand_accesses::.cpu.data      2491803                       # number of demand (read+write) accesses
system.cpu.dcache.demand_accesses::total      2491803                       # number of demand (read+write) accesses
system.cpu.dcache.overall_accesses::.cpu.data      2491941                       # number of overall (read+write) accesses
system.cpu.dcache.overall_accesses::total      2491941                       # number of overall (read+write) accesses
system.cpu.dcache.demand_miss_rate::.cpu.data     0.975039                       # miss rate for demand accesses
system.cpu.dcache.demand_miss_rate::total     0.975039                       # miss rate for demand accesses
system.cpu.dcache.overall_miss_rate::.cpu.data     0.974988                       # miss rate for overall accesses
system.cpu.dcache.overall_miss_rate::total     0.974988                       # miss rate for overall accesses
system.cpu.dcache.demand_avg_miss_latency::.cpu.data 85925.798722                       # average overall miss latency
system.cpu.dcache.demand_avg_miss_latency::total 85925.798722                       # average overall miss latency
system.cpu.dcache.overall_avg_miss_latency::.cpu.data 85925.551160                       # average overall miss latency
system.cpu.dcache.overall_avg_miss_latency::total 85925.551160                       # average overall miss latency
system.cpu.dcache.blocked_cycles::no_mshrs     14519245                       # number of cycles access was blocked
system.cpu.dcache.blocked_cycles::no_targets            0                       # number of cycles access was blocked
system.cpu.dcache.blocked::no_mshrs            265874                       # number of cycles access was blocked
system.cpu.dcache.blocked::no_targets               0                       # number of cycles access was blocked
system.cpu.dcache.avg_blocked_cycles::no_mshrs    54.609495                       # average number of cycles each access was blocked
system.cpu.dcache.avg_blocked_cycles::no_targets          nan                       # average number of cycles each access was blocked
system.cpu.dcache.writebacks::.writebacks       302834                       # number of writebacks
system.cpu.dcache.writebacks::total            302834                       # number of writebacks
system.cpu.dcache.demand_mshr_hits::.cpu.data      2125577                       # number of demand (read+write) MSHR hits
system.cpu.dcache.demand_mshr_hits::total      2125577                       # number of demand (read+write) MSHR hits
system.cpu.dcache.overall_mshr_hits::.cpu.data      2125577                       # number of overall MSHR hits
system.cpu.dcache.overall_mshr_hits::total      2125577                       # number of overall MSHR hits
system.cpu.dcache.demand_mshr_misses::.cpu.data       304028                       # number of demand (read+write) MSHR misses
system.cpu.dcache.demand_mshr_misses::total       304028                       # number of demand (read+write) MSHR misses
system.cpu.dcache.overall_mshr_misses::.cpu.data       304035                       # number of overall MSHR misses
system.cpu.dcache.overall_mshr_misses::total       304035                       # number of overall MSHR misses
system.cpu.dcache.demand_mshr_miss_latency::.cpu.data  32318838467                       # number of demand (read+write) MSHR miss cycles
system.cpu.dcache.demand_mshr_miss_latency::total  32318838467                       # number of demand (read+write) MSHR miss cycles
system.cpu.dcache.overall_mshr_miss_latency::.cpu.data  32319337467                       # number of overall MSHR miss cycles
system.cpu.dcache.overall_mshr_miss_latency::total  32319337467                       # number of overall MSHR miss cycles
system.cpu.dcache.demand_mshr_miss_rate::.cpu.data     0.122011                       # mshr miss rate for demand accesses
system.cpu.dcache.demand_mshr_miss_rate::total     0.122011                       # mshr miss rate for demand accesses
system.cpu.dcache.overall_mshr_miss_rate::.cpu.data     0.122007                       # mshr miss rate for overall accesses
system.cpu.dcache.overall_mshr_miss_rate::total     0.122007                       # mshr miss rate for overall accesses
system.cpu.dcache.demand_avg_mshr_miss_latency::.cpu.data 106302.177651                       # average overall mshr miss latency
system.cpu.dcache.demand_avg_mshr_miss_latency::total 106302.177651                       # average overall mshr miss latency
system.cpu.dcache.overall_avg_mshr_miss_latency::.cpu.data 106301.371444                       # average overall mshr miss latency
system.cpu.dcache.overall_avg_mshr_miss_latency::total 106301.371444                       # average overall mshr miss latency
system.cpu.dcache.replacements                 303009                       # number of replacements
system.cpu.dcache.ReadReq_hits::.cpu.data        35901                       # number of ReadReq hits
system.cpu.dcache.ReadReq_hits::total           35901                       # number of ReadReq hits
system.cpu.dcache.ReadReq_misses::.cpu.data          548                       # number of ReadReq misses
system.cpu.dcache.ReadReq_misses::total           548                       # number of ReadReq misses
system.cpu.dcache.ReadReq_miss_latency::.cpu.data     30848500                       # number of ReadReq miss cycles
system.cpu.dcache.ReadReq_miss_latency::total     30848500                       # number of ReadReq miss cycles
system.cpu.dcache.ReadReq_accesses::.cpu.data        36449                       # number of ReadReq accesses(hits+misses)
system.cpu.dcache.ReadReq_accesses::total        36449                       # number of ReadReq accesses(hits+misses)
system.cpu.dcache.ReadReq_miss_rate::.cpu.data     0.015035                       # miss rate for ReadReq accesses
system.cpu.dcache.ReadReq_miss_rate::total     0.015035                       # miss rate for ReadReq accesses
system.cpu.dcache.ReadReq_avg_miss_latency::.cpu.data 56292.883212                       # average ReadReq miss latency
system.cpu.dcache.ReadReq_avg_miss_latency::total 56292.883212                       # average ReadReq miss latency
system.cpu.dcache.ReadReq_mshr_hits::.cpu.data          312                       # number of ReadReq MSHR hits
system.cpu.dcache.ReadReq_mshr_hits::total          312                       # number of ReadReq MSHR hits
system.cpu.dcache.ReadReq_mshr_misses::.cpu.data          236                       # number of ReadReq MSHR misses
system.cpu.dcache.ReadReq_mshr_misses::total          236                       # number of ReadReq MSHR misses
system.cpu.dcache.ReadReq_mshr_miss_latency::.cpu.data     13955000                       # number of ReadReq MSHR miss cycles
system.cpu.dcache.ReadReq_mshr_miss_latency::total     13955000                       # number of ReadReq MSHR miss cycles
system.cpu.dcache.ReadReq_mshr_miss_rate::.cpu.data     0.006475                       # mshr miss rate for ReadReq accesses
system.cpu.dcache.ReadReq_mshr_miss_rate::total     0.006475                       # mshr miss rate for ReadReq accesses
system.cpu.dcache.ReadReq_avg_mshr_miss_latency::.cpu.data 59131.355932                       # average ReadReq mshr miss latency
system.cpu.dcache.ReadReq_avg_mshr_miss_latency::total 59131.355932                       # average ReadReq mshr miss latency
system.cpu.dcache.WriteReq_hits::.cpu.data        26253                       # number of WriteReq hits
system.cpu.dcache.WriteReq_hits::total          26253                       # number of WriteReq hits
system.cpu.dcache.WriteReq_misses::.cpu.data      2428999                       # number of WriteReq misses
system.cpu.dcache.WriteReq_misses::total      2428999                       # number of WriteReq misses
system.cpu.dcache.WriteReq_miss_latency::.cpu.data 208733065732                       # number of WriteReq miss cycles
system.cpu.dcache.WriteReq_miss_latency::total 208733065732                       # number of WriteReq miss cycles
system.cpu.dcache.WriteReq_accesses::.cpu.data      2455252                       # number of WriteReq accesses(hits+misses)
system.cpu.dcache.WriteReq_accesses::total      2455252                       # number of WriteReq accesses(hits+misses)
system.cpu.dcache.WriteReq_miss_rate::.cpu.data     0.989307                       # miss rate for WriteReq accesses
system.cpu.dcache.WriteReq_miss_rate::total     0.989307                       # miss rate for WriteReq accesses
system.cpu.dcache.WriteReq_avg_miss_latency::.cpu.data 85933.780019                       # average WriteReq miss latency
system.cpu.dcache.WriteReq_avg_miss_latency::total 85933.780019                       # average WriteReq miss latency
system.cpu.dcache.WriteReq_mshr_hits::.cpu.data      2125265                       # number of WriteReq MSHR hits
system.cpu.dcache.WriteReq_mshr_hits::total      2125265                       # number of WriteReq MSHR hits
system.cpu.dcache.WriteReq_mshr_misses::.cpu.data       303734                       # number of WriteReq MSHR misses
system.cpu.dcache.WriteReq_mshr_misses::total       303734                       # number of WriteReq MSHR misses
system.cpu.dcache.WriteReq_mshr_miss_latency::.cpu.data  32303105495                       # number of WriteReq MSHR miss cycles
system.cpu.dcache.WriteReq_mshr_miss_latency::total  32303105495                       # number of WriteReq MSHR miss cycles
system.cpu.dcache.WriteReq_mshr_miss_rate::.cpu.data     0.123708                       # mshr miss rate for WriteReq accesses
system.cpu.dcache.WriteReq_mshr_miss_rate::total     0.123708                       # mshr miss rate for WriteReq accesses
system.cpu.dcache.WriteReq_avg_mshr_miss_latency::.cpu.data 106353.274559                       # average WriteReq mshr miss latency
system.cpu.dcache.WriteReq_avg_mshr_miss_latency::total 106353.274559                       # average WriteReq mshr miss latency
system.cpu.dcache.SoftPFReq_hits::.cpu.data          131                       # number of SoftPFReq hits
system.cpu.dcache.SoftPFReq_hits::total           131                       # number of SoftPFReq hits
system.cpu.dcache.SoftPFReq_misses::.cpu.data            7                       # number of SoftPFReq misses
system.cpu.dcache.SoftPFReq_misses::total            7                       # number of SoftPFReq misses
system.cpu.dcache.SoftPFReq_accesses::.cpu.data          138                       # number of SoftPFReq accesses(hits+misses)
system.cpu.dcache.SoftPFReq_accesses::total          138                       # number of SoftPFReq accesses(hits+misses)
system.cpu.dcache.SoftPFReq_miss_rate::.cpu.data     0.050725                       # miss rate for SoftPFReq accesses
system.cpu.dcache.SoftPFReq_miss_rate::total     0.050725                       # miss rate for SoftPFReq accesses
system.cpu.dcache.SoftPFReq_mshr_misses::.cpu.data            7                       # number of SoftPFReq MSHR misses
system.cpu.dcache.SoftPFReq_mshr_misses::total            7                       # number of SoftPFReq MSHR misses
system.cpu.dcache.SoftPFReq_mshr_miss_latency::.cpu.data       499000                       # number of SoftPFReq MSHR miss cycles
system.cpu.dcache.SoftPFReq_mshr_miss_latency::total       499000                       # number of SoftPFReq MSHR miss cycles
system.cpu.dcache.SoftPFReq_mshr_miss_rate::.cpu.data     0.050725                       # mshr miss rate for SoftPFReq accesses
system.cpu.dcache.SoftPFReq_mshr_miss_rate::total     0.050725                       # mshr miss rate for SoftPFReq accesses
system.cpu.dcache.SoftPFReq_avg_mshr_miss_latency::.cpu.data 71285.714286                       # average SoftPFReq mshr miss latency
system.cpu.dcache.SoftPFReq_avg_mshr_miss_latency::total 71285.714286                       # average SoftPFReq mshr miss latency
system.cpu.dcache.WriteLineReq_hits::.cpu.data           44                       # number of WriteLineReq hits
system.cpu.dcache.WriteLineReq_hits::total           44                       # number of WriteLineReq hits
system.cpu.dcache.WriteLineReq_misses::.cpu.data           58                       # number of WriteLineReq misses
system.cpu.dcache.WriteLineReq_misses::total           58                       # number of WriteLineReq misses
system.cpu.dcache.WriteLineReq_miss_latency::.cpu.data      1835972                       # number of WriteLineReq miss cycles
system.cpu.dcache.WriteLineReq_miss_latency::total      1835972                       # number of WriteLineReq miss cycles
system.cpu.dcache.WriteLineReq_accesses::.cpu.data          102                       # number of WriteLineReq accesses(hits+misses)
system.cpu.dcache.WriteLineReq_accesses::total          102                       # number of WriteLineReq accesses(hits+misses)
system.cpu.dcache.WriteLineReq_miss_rate::.cpu.data     0.568627                       # miss rate for WriteLineReq accesses
system.cpu.dcache.WriteLineReq_miss_rate::total     0.568627                       # miss rate for WriteLineReq accesses
system.cpu.dcache.WriteLineReq_avg_miss_latency::.cpu.data 31654.689655                       # average WriteLineReq miss latency
system.cpu.dcache.WriteLineReq_avg_miss_latency::total 31654.689655                       # average WriteLineReq miss latency
system.cpu.dcache.WriteLineReq_mshr_misses::.cpu.data           58                       # number of WriteLineReq MSHR misses
system.cpu.dcache.WriteLineReq_mshr_misses::total           58                       # number of WriteLineReq MSHR misses
system.cpu.dcache.WriteLineReq_mshr_miss_latency::.cpu.data      1777972                       # number of WriteLineReq MSHR miss cycles
system.cpu.dcache.WriteLineReq_mshr_miss_latency::total      1777972                       # number of WriteLineReq MSHR miss cycles
system.cpu.dcache.WriteLineReq_mshr_miss_rate::.cpu.data     0.568627                       # mshr miss rate for WriteLineReq accesses
system.cpu.dcache.WriteLineReq_mshr_miss_rate::total     0.568627                       # mshr miss rate for WriteLineReq accesses
system.cpu.dcache.WriteLineReq_avg_mshr_miss_latency::.cpu.data 30654.689655                       # average WriteLineReq mshr miss latency
system.cpu.dcache.WriteLineReq_avg_mshr_miss_latency::total 30654.689655                       # average WriteLineReq mshr miss latency
system.cpu.dcache.LoadLockedReq_hits::.cpu.data          157                       # number of LoadLockedReq hits
system.cpu.dcache.LoadLockedReq_hits::total          157                       # number of LoadLockedReq hits
system.cpu.dcache.LoadLockedReq_misses::.cpu.data            2                       # number of LoadLockedReq misses
system.cpu.dcache.LoadLockedReq_misses::total            2                       # number of LoadLockedReq misses
system.cpu.dcache.LoadLockedReq_miss_latency::.cpu.data       187000                       # number of LoadLockedReq miss cycles
system.cpu.dcache.LoadLockedReq_miss_latency::total       187000                       # number of LoadLockedReq miss cycles
system.cpu.dcache.LoadLockedReq_accesses::.cpu.data          159                       # number of LoadLockedReq accesses(hits+misses)
system.cpu.dcache.LoadLockedReq_accesses::total          159                       # number of LoadLockedReq accesses(hits+misses)
system.cpu.dcache.LoadLockedReq_miss_rate::.cpu.data     0.012579                       # miss rate for LoadLockedReq accesses
system.cpu.dcache.LoadLockedReq_miss_rate::total     0.012579                       # miss rate for LoadLockedReq accesses
system.cpu.dcache.LoadLockedReq_avg_miss_latency::.cpu.data        93500                       # average LoadLockedReq miss latency
system.cpu.dcache.LoadLockedReq_avg_miss_latency::total        93500                       # average LoadLockedReq miss latency
system.cpu.dcache.LoadLockedReq_mshr_hits::.cpu.data            1                       # number of LoadLockedReq MSHR hits
system.cpu.dcache.LoadLockedReq_mshr_hits::total            1                       # number of LoadLockedReq MSHR hits
system.cpu.dcache.LoadLockedReq_mshr_misses::.cpu.data            1                       # number of LoadLockedReq MSHR misses
system.cpu.dcache.LoadLockedReq_mshr_misses::total            1                       # number of LoadLockedReq MSHR misses
system.cpu.dcache.LoadLockedReq_mshr_miss_latency::.cpu.data        85000                       # number of LoadLockedReq MSHR miss cycles
system.cpu.dcache.LoadLockedReq_mshr_miss_latency::total        85000                       # number of LoadLockedReq MSHR miss cycles
system.cpu.dcache.LoadLockedReq_mshr_miss_rate::.cpu.data     0.006289                       # mshr miss rate for LoadLockedReq accesses
system.cpu.dcache.LoadLockedReq_mshr_miss_rate::total     0.006289                       # mshr miss rate for LoadLockedReq accesses
system.cpu.dcache.LoadLockedReq_avg_mshr_miss_latency::.cpu.data        85000                       # average LoadLockedReq mshr miss latency
system.cpu.dcache.LoadLockedReq_avg_mshr_miss_latency::total        85000                       # average LoadLockedReq mshr miss latency
system.cpu.dcache.StoreCondReq_hits::.cpu.data          138                       # number of StoreCondReq hits
system.cpu.dcache.StoreCondReq_hits::total          138                       # number of StoreCondReq hits
system.cpu.dcache.StoreCondReq_accesses::.cpu.data          138                       # number of StoreCondReq accesses(hits+misses)
system.cpu.dcache.StoreCondReq_accesses::total          138                       # number of StoreCondReq accesses(hits+misses)
system.cpu.dcache.power_state.pwrStateResidencyTicks::UNDEFINED   8624233500                       # Cumulative time (in ticks) in various power states
system.cpu.dcache.tags.tagsinuse          1015.430961                       # Cycle average of tags in use
system.cpu.dcache.tags.total_refs              366657                       # Total number of references to valid blocks.
system.cpu.dcache.tags.sampled_refs            304033                       # Sample count of references to valid blocks.
system.cpu.dcache.tags.avg_refs              1.205978                       # Average number of references to valid blocks.
system.cpu.dcache.tags.warmup_cycle            176500                       # Cycle when the warmup percentage was hit.
system.cpu.dcache.tags.occ_blocks::.cpu.data  1015.430961                       # Average occupied blocks per requestor
system.cpu.dcache.tags.occ_percent::.cpu.data     0.991632                       # Average percentage of cache occupancy
system.cpu.dcache.tags.occ_percent::total     0.991632                       # Average percentage of cache occupancy
system.cpu.dcache.tags.occ_task_id_blocks::1024         1024                       # Occupied blocks per task id
system.cpu.dcache.tags.age_task_id_blocks_1024::0          339                       # Occupied blocks per task id
system.cpu.dcache.tags.age_task_id_blocks_1024::1          685                       # Occupied blocks per task id
system.cpu.dcache.tags.occ_task_id_percent::1024            1                       # Percentage of cache occupancy per task id
system.cpu.dcache.tags.tag_accesses           5288509                       # Number of tag accesses
system.cpu.dcache.tags.data_accesses          5288509                       # Number of data accesses
system.cpu.dcache.tags.power_state.pwrStateResidencyTicks::UNDEFINED   8624233500                       # Cumulative time (in ticks) in various power states
system.cpu.power_state.pwrStateResidencyTicks::ON   8624233500                       # Cumulative time (in ticks) in various power states

---------- End Simulation Statistics   ----------
