
---------- Begin Simulation Statistics ----------
final_tick                                  470109500                       # Number of ticks from beginning of simulation (restored from checkpoints and never reset)
host_inst_rate                                  85525                       # Simulator instruction rate (inst/s)
host_mem_usage                                 866332                       # Number of bytes of host memory used
host_op_rate                                   109048                       # Simulator op (including micro ops) rate (op/s)
host_seconds                                    11.69                       # Real time elapsed on the host
host_tick_rate                               40205407                       # Simulator tick rate (ticks/s)
sim_freq                                 1000000000000                       # Frequency of simulated ticks
sim_insts                                     1000002                       # Number of instructions simulated
sim_ops                                       1275067                       # Number of ops (including micro ops) simulated
sim_seconds                                  0.000470                       # Number of seconds simulated
sim_ticks                                   470109500                       # Number of ticks simulated
system.cpu.branchPred.BTBCorrect                    0                       # Number of correct BTB predictions (this stat may not work properly.
system.cpu.branchPred.BTBHitPct             97.607349                       # BTB Hit Percentage
system.cpu.branchPred.BTBHits                  100518                       # Number of BTB hits
system.cpu.branchPred.BTBLookups               102982                       # Number of BTB lookups
system.cpu.branchPred.RASInCorrect                  0                       # Number of incorrect RAS predictions.
system.cpu.branchPred.condIncorrect              5584                       # Number of conditional branches incorrect
system.cpu.branchPred.condPredicted            169743                       # Number of conditional branches predicted
system.cpu.branchPred.indirectHits                469                       # Number of indirect target hits.
system.cpu.branchPred.indirectLookups            1165                       # Number of indirect predictor lookups.
system.cpu.branchPred.indirectMisses              696                       # Number of indirect misses.
system.cpu.branchPred.lookups                  226186                       # Number of BP lookups
system.cpu.branchPred.usedRAS                   18950                       # Number of times the RAS was used to get a target.
system.cpu.branchPredindirectMispredicted          185                       # Number of mispredicted indirect branches.
system.cpu.cc_regfile_reads                    307422                       # number of cc regfile reads
system.cpu.cc_regfile_writes                   282187                       # number of cc regfile writes
system.cpu.commit.amos                              0                       # Number of atomic instructions committed
system.cpu.commit.branchMispredicts              4935                       # The number of times a branch was mispredicted
system.cpu.commit.branches                     199789                       # Number of branches committed
system.cpu.commit.bw_lim_events                 69037                       # number cycles where commit BW limit reached
system.cpu.commit.commitNonSpecStalls             405                       # The number of times commit has been forced to stall to communicate backwards
system.cpu.commit.commitSquashedInsts           98092                       # The number of squashed insts skipped by commit
system.cpu.commit.committedInsts              1002214                       # Number of instructions committed
system.cpu.commit.committedOps                1277279                       # Number of ops (including micro ops) committed
system.cpu.commit.committed_per_cycle::samples       821349                       # Number of insts commited each cycle
system.cpu.commit.committed_per_cycle::mean     1.555099                       # Number of insts commited each cycle
system.cpu.commit.committed_per_cycle::stdev     2.459437                       # Number of insts commited each cycle
system.cpu.commit.committed_per_cycle::underflows            0      0.00%      0.00% # Number of insts commited each cycle
system.cpu.commit.committed_per_cycle::0       460404     56.05%     56.05% # Number of insts commited each cycle
system.cpu.commit.committed_per_cycle::1       107325     13.07%     69.12% # Number of insts commited each cycle
system.cpu.commit.committed_per_cycle::2        67605      8.23%     77.35% # Number of insts commited each cycle
system.cpu.commit.committed_per_cycle::3        48632      5.92%     83.27% # Number of insts commited each cycle
system.cpu.commit.committed_per_cycle::4        29897      3.64%     86.91% # Number of insts commited each cycle
system.cpu.commit.committed_per_cycle::5        18332      2.23%     89.15% # Number of insts commited each cycle
system.cpu.commit.committed_per_cycle::6        15515      1.89%     91.03% # Number of insts commited each cycle
system.cpu.commit.committed_per_cycle::7         4602      0.56%     91.59% # Number of insts commited each cycle
system.cpu.commit.committed_per_cycle::8        69037      8.41%    100.00% # Number of insts commited each cycle
system.cpu.commit.committed_per_cycle::overflows            0      0.00%    100.00% # Number of insts commited each cycle
system.cpu.commit.committed_per_cycle::min_value            0                       # Number of insts commited each cycle
system.cpu.commit.committed_per_cycle::max_value            8                       # Number of insts commited each cycle
system.cpu.commit.committed_per_cycle::total       821349                       # Number of insts commited each cycle
system.cpu.commit.fp_insts                          0                       # Number of committed floating point instructions.
system.cpu.commit.function_calls                15547                       # Number of function calls committed.
system.cpu.commit.int_insts                   1131445                       # Number of committed integer instructions.
system.cpu.commit.loads                        187072                       # Number of loads committed
system.cpu.commit.membars                         384                       # Number of memory barriers committed
system.cpu.commit.op_class_0::No_OpClass          861      0.07%      0.07% # Class of committed instruction
system.cpu.commit.op_class_0::IntAlu           756222     59.21%     59.27% # Class of committed instruction
system.cpu.commit.op_class_0::IntMult            7535      0.59%     59.86% # Class of committed instruction
system.cpu.commit.op_class_0::IntDiv               23      0.00%     59.86% # Class of committed instruction
system.cpu.commit.op_class_0::FloatAdd           2196      0.17%     60.04% # Class of committed instruction
system.cpu.commit.op_class_0::FloatCmp              4      0.00%     60.04% # Class of committed instruction
system.cpu.commit.op_class_0::FloatCvt          10982      0.86%     60.90% # Class of committed instruction
system.cpu.commit.op_class_0::FloatMult         10950      0.86%     61.75% # Class of committed instruction
system.cpu.commit.op_class_0::FloatMultAcc        15330      1.20%     62.95% # Class of committed instruction
system.cpu.commit.op_class_0::FloatDiv           2212      0.17%     63.13% # Class of committed instruction
system.cpu.commit.op_class_0::FloatMisc         16014      1.25%     64.38% # Class of committed instruction
system.cpu.commit.op_class_0::FloatSqrt             0      0.00%     64.38% # Class of committed instruction
system.cpu.commit.op_class_0::SimdAdd            1597      0.13%     64.51% # Class of committed instruction
system.cpu.commit.op_class_0::SimdAddAcc            0      0.00%     64.51% # Class of committed instruction
system.cpu.commit.op_class_0::SimdAlu            2100      0.16%     64.67% # Class of committed instruction
system.cpu.commit.op_class_0::SimdCmp            2000      0.16%     64.83% # Class of committed instruction
system.cpu.commit.op_class_0::SimdCvt               0      0.00%     64.83% # Class of committed instruction
system.cpu.commit.op_class_0::SimdMisc           3853      0.30%     65.13% # Class of committed instruction
system.cpu.commit.op_class_0::SimdMult              0      0.00%     65.13% # Class of committed instruction
system.cpu.commit.op_class_0::SimdMultAcc            0      0.00%     65.13% # Class of committed instruction
system.cpu.commit.op_class_0::SimdShift             0      0.00%     65.13% # Class of committed instruction
system.cpu.commit.op_class_0::SimdShiftAcc            0      0.00%     65.13% # Class of committed instruction
system.cpu.commit.op_class_0::SimdDiv               0      0.00%     65.13% # Class of committed instruction
system.cpu.commit.op_class_0::SimdSqrt              0      0.00%     65.13% # Class of committed instruction
system.cpu.commit.op_class_0::SimdFloatAdd            0      0.00%     65.13% # Class of committed instruction
system.cpu.commit.op_class_0::SimdFloatAlu            0      0.00%     65.13% # Class of committed instruction
system.cpu.commit.op_class_0::SimdFloatCmp            0      0.00%     65.13% # Class of committed instruction
system.cpu.commit.op_class_0::SimdFloatCvt            0      0.00%     65.13% # Class of committed instruction
system.cpu.commit.op_class_0::SimdFloatDiv            0      0.00%     65.13% # Class of committed instruction
system.cpu.commit.op_class_0::SimdFloatMisc            0      0.00%     65.13% # Class of committed instruction
system.cpu.commit.op_class_0::SimdFloatMult            0      0.00%     65.13% # Class of committed instruction
system.cpu.commit.op_class_0::SimdFloatMultAcc            0      0.00%     65.13% # Class of committed instruction
system.cpu.commit.op_class_0::SimdFloatSqrt            0      0.00%     65.13% # Class of committed instruction
system.cpu.commit.op_class_0::SimdReduceAdd            0      0.00%     65.13% # Class of committed instruction
system.cpu.commit.op_class_0::SimdReduceAlu            0      0.00%     65.13% # Class of committed instruction
system.cpu.commit.op_class_0::SimdReduceCmp            0      0.00%     65.13% # Class of committed instruction
system.cpu.commit.op_class_0::SimdFloatReduceAdd            0      0.00%     65.13% # Class of committed instruction
system.cpu.commit.op_class_0::SimdFloatReduceCmp            0      0.00%     65.13% # Class of committed instruction
system.cpu.commit.op_class_0::SimdAes               0      0.00%     65.13% # Class of committed instruction
system.cpu.commit.op_class_0::SimdAesMix            0      0.00%     65.13% # Class of committed instruction
system.cpu.commit.op_class_0::SimdSha1Hash            0      0.00%     65.13% # Class of committed instruction
system.cpu.commit.op_class_0::SimdSha1Hash2            0      0.00%     65.13% # Class of committed instruction
system.cpu.commit.op_class_0::SimdSha256Hash            0      0.00%     65.13% # Class of committed instruction
system.cpu.commit.op_class_0::SimdSha256Hash2            0      0.00%     65.13% # Class of committed instruction
system.cpu.commit.op_class_0::SimdShaSigma2            0      0.00%     65.13% # Class of committed instruction
system.cpu.commit.op_class_0::SimdShaSigma3            0      0.00%     65.13% # Class of committed instruction
system.cpu.commit.op_class_0::SimdPredAlu            0      0.00%     65.13% # Class of committed instruction
system.cpu.commit.op_class_0::MemRead          187072     14.65%     79.78% # Class of committed instruction
system.cpu.commit.op_class_0::MemWrite         258328     20.22%    100.00% # Class of committed instruction
system.cpu.commit.op_class_0::FloatMemRead            0      0.00%    100.00% # Class of committed instruction
system.cpu.commit.op_class_0::FloatMemWrite            0      0.00%    100.00% # Class of committed instruction
system.cpu.commit.op_class_0::IprAccess             0      0.00%    100.00% # Class of committed instruction
system.cpu.commit.op_class_0::InstPrefetch            0      0.00%    100.00% # Class of committed instruction
system.cpu.commit.op_class_0::total           1277279                       # Class of committed instruction
system.cpu.commit.refs                         445400                       # Number of memory references committed
system.cpu.commit.swp_count                         0                       # Number of s/w prefetches committed
system.cpu.commit.vec_insts                     96081                       # Number of committed Vector instructions.
system.cpu.committedInsts                     1000002                       # Number of Instructions Simulated
system.cpu.committedOps                       1275067                       # Number of Ops (including micro ops) Simulated
system.cpu.cpi                               0.940219                       # CPI: Cycles Per Instruction
system.cpu.cpi_total                         0.940219                       # CPI: Total CPI of All Threads
system.cpu.decode.BlockedCycles                142393                       # Number of cycles decode is blocked
system.cpu.decode.BranchMispred                   663                       # Number of times decode detected a branch misprediction
system.cpu.decode.BranchResolved                99783                       # Number of times decode resolved a branch
system.cpu.decode.DecodedInsts                1400652                       # Number of instructions handled by decode
system.cpu.decode.IdleCycles                   434030                       # Number of cycles decode is idle
system.cpu.decode.RunCycles                    239648                       # Number of cycles decode is running
system.cpu.decode.SquashCycles                   5023                       # Number of cycles decode is squashing
system.cpu.decode.SquashedInsts                  2517                       # Number of squashed instructions handled by decode
system.cpu.decode.UnblockCycles                 15464                       # Number of cycles decode is unblocking
system.cpu.dtb.accesses                             0                       # DTB accesses
system.cpu.dtb.align_faults                         0                       # Number of TLB faults due to alignment restrictions
system.cpu.dtb.domain_faults                        0                       # Number of TLB faults due to domain restrictions
system.cpu.dtb.flush_entries                        0                       # Number of entries that have been flushed from TLB
system.cpu.dtb.flush_tlb                            0                       # Number of times complete TLB was flushed
system.cpu.dtb.flush_tlb_asid                       0                       # Number of times TLB was flushed by ASID
system.cpu.dtb.flush_tlb_mva                        0                       # Number of times TLB was flushed by MVA
system.cpu.dtb.flush_tlb_mva_asid                   0                       # Number of times TLB was flushed by MVA & ASID
system.cpu.dtb.hits                                 0                       # DTB hits
system.cpu.dtb.inst_accesses                        0                       # ITB inst accesses
system.cpu.dtb.inst_hits                            0                       # ITB inst hits
system.cpu.dtb.inst_misses                          0                       # ITB inst misses
system.cpu.dtb.misses                               0                       # DTB misses
system.cpu.dtb.perms_faults                         0                       # Number of TLB faults due to permissions restrictions
system.cpu.dtb.prefetch_faults                      0                       # Number of TLB faults due to prefetch
system.cpu.dtb.read_accesses                        0                       # DTB read accesses
system.cpu.dtb.read_hits                            0                       # DTB read hits
system.cpu.dtb.read_misses                          0                       # DTB read misses
system.cpu.dtb.stage2_mmu.stage2_tlb.accesses            0                       # DTB accesses
system.cpu.dtb.stage2_mmu.stage2_tlb.align_faults            0                       # Number of TLB faults due to alignment restrictions
system.cpu.dtb.stage2_mmu.stage2_tlb.domain_faults            0                       # Number of TLB faults due to domain restrictions
system.cpu.dtb.stage2_mmu.stage2_tlb.flush_entries            0                       # Number of entries that have been flushed from TLB
system.cpu.dtb.stage2_mmu.stage2_tlb.flush_tlb            0                       # Number of times complete TLB was flushed
system.cpu.dtb.stage2_mmu.stage2_tlb.flush_tlb_asid            0                       # Number of times TLB was flushed by ASID
system.cpu.dtb.stage2_mmu.stage2_tlb.flush_tlb_mva            0                       # Number of times TLB was flushed by MVA
system.cpu.dtb.stage2_mmu.stage2_tlb.flush_tlb_mva_asid            0                       # Number of times TLB was flushed by MVA & ASID
system.cpu.dtb.stage2_mmu.stage2_tlb.hits            0                       # DTB hits
system.cpu.dtb.stage2_mmu.stage2_tlb.inst_accesses            0                       # ITB inst accesses
system.cpu.dtb.stage2_mmu.stage2_tlb.inst_hits            0                       # ITB inst hits
system.cpu.dtb.stage2_mmu.stage2_tlb.inst_misses            0                       # ITB inst misses
system.cpu.dtb.stage2_mmu.stage2_tlb.misses            0                       # DTB misses
system.cpu.dtb.stage2_mmu.stage2_tlb.perms_faults            0                       # Number of TLB faults due to permissions restrictions
system.cpu.dtb.stage2_mmu.stage2_tlb.prefetch_faults            0                       # Number of TLB faults due to prefetch
system.cpu.dtb.stage2_mmu.stage2_tlb.read_accesses            0                       # DTB read accesses
system.cpu.dtb.stage2_mmu.stage2_tlb.read_hits            0                       # DTB read hits
system.cpu.dtb.stage2_mmu.stage2_tlb.read_misses            0                       # DTB read misses
system.cpu.dtb.stage2_mmu.stage2_tlb.walker.walkRequestOrigin_Requested::Data            0                       # Table walker requests started/completed, data/inst
system.cpu.dtb.stage2_mmu.stage2_tlb.walker.walkRequestOrigin_Requested::Inst            0                       # Table walker requests started/completed, data/inst
system.cpu.dtb.stage2_mmu.stage2_tlb.walker.walkRequestOrigin_Requested::total            0                       # Table walker requests started/completed, data/inst
system.cpu.dtb.stage2_mmu.stage2_tlb.walker.walkRequestOrigin_Completed::Data            0                       # Table walker requests started/completed, data/inst
system.cpu.dtb.stage2_mmu.stage2_tlb.walker.walkRequestOrigin_Completed::Inst            0                       # Table walker requests started/completed, data/inst
system.cpu.dtb.stage2_mmu.stage2_tlb.walker.walkRequestOrigin_Completed::total            0                       # Table walker requests started/completed, data/inst
system.cpu.dtb.stage2_mmu.stage2_tlb.walker.walkRequestOrigin::total            0                       # Table walker requests started/completed, data/inst
system.cpu.dtb.stage2_mmu.stage2_tlb.walker.walks            0                       # Table walker walks requested
system.cpu.dtb.stage2_mmu.stage2_tlb.write_accesses            0                       # DTB write accesses
system.cpu.dtb.stage2_mmu.stage2_tlb.write_hits            0                       # DTB write hits
system.cpu.dtb.stage2_mmu.stage2_tlb.write_misses            0                       # DTB write misses
system.cpu.dtb.walker.walkRequestOrigin_Requested::Data            0                       # Table walker requests started/completed, data/inst
system.cpu.dtb.walker.walkRequestOrigin_Requested::Inst            0                       # Table walker requests started/completed, data/inst
system.cpu.dtb.walker.walkRequestOrigin_Requested::total            0                       # Table walker requests started/completed, data/inst
system.cpu.dtb.walker.walkRequestOrigin_Completed::Data            0                       # Table walker requests started/completed, data/inst
system.cpu.dtb.walker.walkRequestOrigin_Completed::Inst            0                       # Table walker requests started/completed, data/inst
system.cpu.dtb.walker.walkRequestOrigin_Completed::total            0                       # Table walker requests started/completed, data/inst
system.cpu.dtb.walker.walkRequestOrigin::total            0                       # Table walker requests started/completed, data/inst
system.cpu.dtb.walker.walks                         0                       # Table walker walks requested
system.cpu.dtb.write_accesses                       0                       # DTB write accesses
system.cpu.dtb.write_hits                           0                       # DTB write hits
system.cpu.dtb.write_misses                         0                       # DTB write misses
system.cpu.fetch.Branches                      226186                       # Number of branches that fetch encountered
system.cpu.fetch.CacheLines                    158153                       # Number of cache lines fetched
system.cpu.fetch.Cycles                        317605                       # Number of cycles fetch has run and was not squashing or blocked
system.cpu.fetch.IcacheSquashes                  3960                       # Number of outstanding Icache misses that were squashed
system.cpu.fetch.IcacheWaitRetryStallCycles           69                       # Number of stall cycles due to full MSHR
system.cpu.fetch.Insts                        1120770                       # Number of instructions fetch has processed
system.cpu.fetch.MiscStallCycles                   12                       # Number of cycles fetch has spent waiting on interrupts, or bad addresses, or out of MSHRs
system.cpu.fetch.SquashCycles                   11344                       # Number of cycles fetch has spent squashing
system.cpu.fetch.branchRate                  0.240567                       # Number of branch fetches per cycle
system.cpu.fetch.icacheStallCycles             513200                       # Number of cycles fetch is stalled on an Icache miss
system.cpu.fetch.predictedBranches             119937                       # Number of branches that fetch has predicted taken
system.cpu.fetch.rate                        1.192028                       # Number of inst fetches per cycle
system.cpu.fetch.rateDist::samples             836558                       # Number of instructions fetched each cycle (Total)
system.cpu.fetch.rateDist::mean              1.695544                       # Number of instructions fetched each cycle (Total)
system.cpu.fetch.rateDist::stdev             2.861102                       # Number of instructions fetched each cycle (Total)
system.cpu.fetch.rateDist::underflows               0      0.00%      0.00% # Number of instructions fetched each cycle (Total)
system.cpu.fetch.rateDist::0                   569641     68.09%     68.09% # Number of instructions fetched each cycle (Total)
system.cpu.fetch.rateDist::1                    24430      2.92%     71.01% # Number of instructions fetched each cycle (Total)
system.cpu.fetch.rateDist::2                    26090      3.12%     74.13% # Number of instructions fetched each cycle (Total)
system.cpu.fetch.rateDist::3                    29256      3.50%     77.63% # Number of instructions fetched each cycle (Total)
system.cpu.fetch.rateDist::4                    27690      3.31%     80.94% # Number of instructions fetched each cycle (Total)
system.cpu.fetch.rateDist::5                    26252      3.14%     84.08% # Number of instructions fetched each cycle (Total)
system.cpu.fetch.rateDist::6                    20167      2.41%     86.49% # Number of instructions fetched each cycle (Total)
system.cpu.fetch.rateDist::7                    13235      1.58%     88.07% # Number of instructions fetched each cycle (Total)
system.cpu.fetch.rateDist::8                    99797     11.93%    100.00% # Number of instructions fetched each cycle (Total)
system.cpu.fetch.rateDist::overflows                0      0.00%    100.00% # Number of instructions fetched each cycle (Total)
system.cpu.fetch.rateDist::min_value                0                       # Number of instructions fetched each cycle (Total)
system.cpu.fetch.rateDist::max_value                8                       # Number of instructions fetched each cycle (Total)
system.cpu.fetch.rateDist::total               836558                       # Number of instructions fetched each cycle (Total)
system.cpu.icache.prefetcher.num_hwpf_issued        71565                       # number of hwpf issued
system.cpu.icache.prefetcher.pfBufferHit       436795                       # number of redundant prefetches already in prefetch queue
system.cpu.icache.prefetcher.pfIdentified       734938                       # number of prefetch candidates identified
system.cpu.icache.prefetcher.pfInCache              0                       # number of redundant prefetches already in cache/mshr dropped
system.cpu.icache.prefetcher.pfRemovedFull         5980                       # number of prefetches dropped due to prefetch queue size
system.cpu.icache.prefetcher.pfSpanPage       2591593                       # number of prefetches that crossed the page
system.cpu.idleCycles                          103663                       # Total number of cycles that the CPU has spent unscheduled due to idling
system.cpu.iew.branchMispredicts                 6064                       # Number of branch mispredicts detected at execute
system.cpu.iew.exec_branches                   211721                       # Number of branches executed
system.cpu.iew.exec_nop                          2843                       # number of nop insts executed
system.cpu.iew.exec_rate                     1.428747                       # Inst execution rate
system.cpu.iew.exec_refs                       466351                       # number of memory reference insts executed
system.cpu.iew.exec_stores                     264475                       # Number of stores executed
system.cpu.iew.exec_swp                             0                       # number of swp insts executed
system.cpu.iew.iewBlockCycles                   16568                       # Number of cycles IEW is blocking
system.cpu.iew.iewDispLoadInsts                205581                       # Number of dispatched load instructions
system.cpu.iew.iewDispNonSpecInsts                445                       # Number of dispatched non-speculative instructions
system.cpu.iew.iewDispSquashedInsts               529                       # Number of squashed instructions skipped by dispatch
system.cpu.iew.iewDispStoreInsts               268653                       # Number of dispatched store instructions
system.cpu.iew.iewDispatchedInsts             1375751                       # Number of instructions dispatched to IQ
system.cpu.iew.iewExecLoadInsts                201876                       # Number of load instructions executed
system.cpu.iew.iewExecSquashedInsts              8143                       # Number of squashed instructions skipped in execute
system.cpu.iew.iewExecutedInsts               1343338                       # Number of executed instructions
system.cpu.iew.iewIQFullEvents                    170                       # Number of times the IQ has become full, causing a stall
system.cpu.iew.iewIdleCycles                        0                       # Number of cycles IEW is idle
system.cpu.iew.iewLSQFullEvents                   135                       # Number of times the LSQ has become full, causing a stall
system.cpu.iew.iewSquashCycles                   5023                       # Number of cycles IEW is squashing
system.cpu.iew.iewUnblockCycles                   346                       # Number of cycles IEW is unblocking
system.cpu.iew.lsq.thread0.blockedLoads             0                       # Number of blocked loads due to partial load-store forwarding
system.cpu.iew.lsq.thread0.cacheBlocked           147                       # Number of times an access to memory failed due to the cache being blocked
system.cpu.iew.lsq.thread0.forwLoads              421                       # Number of loads that had data forwarded from stores
system.cpu.iew.lsq.thread0.ignoredResponses            6                       # Number of memory responses ignored because the instruction is squashed
system.cpu.iew.lsq.thread0.invAddrLoads             0                       # Number of loads ignored due to an invalid address
system.cpu.iew.lsq.thread0.invAddrSwpfs             0                       # Number of software prefetches ignored due to an invalid address
system.cpu.iew.lsq.thread0.memOrderViolation           61                       # Number of memory ordering violations
system.cpu.iew.lsq.thread0.rescheduledLoads           64                       # Number of loads that were rescheduled
system.cpu.iew.lsq.thread0.squashedLoads        18504                       # Number of loads squashed
system.cpu.iew.lsq.thread0.squashedStores        10299                       # Number of stores squashed
system.cpu.iew.memOrderViolationEvents             61                       # Number of memory order violations
system.cpu.iew.predictedNotTakenIncorrect         4259                       # Number of branches that were predicted not taken incorrectly
system.cpu.iew.predictedTakenIncorrect           1805                       # Number of branches that were predicted taken incorrectly
system.cpu.iew.wb_consumers                   1119134                       # num instructions consuming a value
system.cpu.iew.wb_count                       1337450                       # cumulative count of insts written-back
system.cpu.iew.wb_fanout                     0.571562                       # average fanout of values written-back
system.cpu.iew.wb_producers                    639654                       # num instructions producing a value
system.cpu.iew.wb_rate                       1.422485                       # insts written-back per cycle
system.cpu.iew.wb_sent                        1339895                       # cumulative count of insts sent to commit
system.cpu.int_regfile_reads                  1581051                       # number of integer regfile reads
system.cpu.int_regfile_writes                  807442                       # number of integer regfile writes
system.cpu.ipc                               1.063582                       # IPC: Instructions Per Cycle
system.cpu.ipc_total                         1.063582                       # IPC: Total IPC of All Threads
system.cpu.iq.FU_type_0::No_OpClass               913      0.07%      0.07% # Type of FU issued
system.cpu.iq.FU_type_0::IntAlu                804342     59.52%     59.58% # Type of FU issued
system.cpu.iq.FU_type_0::IntMult                 8149      0.60%     60.19% # Type of FU issued
system.cpu.iq.FU_type_0::IntDiv                    29      0.00%     60.19% # Type of FU issued
system.cpu.iq.FU_type_0::FloatAdd                2197      0.16%     60.35% # Type of FU issued
system.cpu.iq.FU_type_0::FloatCmp                   4      0.00%     60.35% # Type of FU issued
system.cpu.iq.FU_type_0::FloatCvt               10984      0.81%     61.16% # Type of FU issued
system.cpu.iq.FU_type_0::FloatMult              10950      0.81%     61.97% # Type of FU issued
system.cpu.iq.FU_type_0::FloatMultAcc           15330      1.13%     63.11% # Type of FU issued
system.cpu.iq.FU_type_0::FloatDiv                2212      0.16%     63.27% # Type of FU issued
system.cpu.iq.FU_type_0::FloatMisc              16076      1.19%     64.46% # Type of FU issued
system.cpu.iq.FU_type_0::FloatSqrt                  0      0.00%     64.46% # Type of FU issued
system.cpu.iq.FU_type_0::SimdAdd                 1812      0.13%     64.60% # Type of FU issued
system.cpu.iq.FU_type_0::SimdAddAcc                 0      0.00%     64.60% # Type of FU issued
system.cpu.iq.FU_type_0::SimdAlu                 2391      0.18%     64.77% # Type of FU issued
system.cpu.iq.FU_type_0::SimdCmp                 2138      0.16%     64.93% # Type of FU issued
system.cpu.iq.FU_type_0::SimdCvt                    0      0.00%     64.93% # Type of FU issued
system.cpu.iq.FU_type_0::SimdMisc                4190      0.31%     65.24% # Type of FU issued
system.cpu.iq.FU_type_0::SimdMult                   0      0.00%     65.24% # Type of FU issued
system.cpu.iq.FU_type_0::SimdMultAcc                0      0.00%     65.24% # Type of FU issued
system.cpu.iq.FU_type_0::SimdShift                  0      0.00%     65.24% # Type of FU issued
system.cpu.iq.FU_type_0::SimdShiftAcc               0      0.00%     65.24% # Type of FU issued
system.cpu.iq.FU_type_0::SimdDiv                    0      0.00%     65.24% # Type of FU issued
system.cpu.iq.FU_type_0::SimdSqrt                   0      0.00%     65.24% # Type of FU issued
system.cpu.iq.FU_type_0::SimdFloatAdd               0      0.00%     65.24% # Type of FU issued
system.cpu.iq.FU_type_0::SimdFloatAlu               0      0.00%     65.24% # Type of FU issued
system.cpu.iq.FU_type_0::SimdFloatCmp               0      0.00%     65.24% # Type of FU issued
system.cpu.iq.FU_type_0::SimdFloatCvt               0      0.00%     65.24% # Type of FU issued
system.cpu.iq.FU_type_0::SimdFloatDiv               0      0.00%     65.24% # Type of FU issued
system.cpu.iq.FU_type_0::SimdFloatMisc              0      0.00%     65.24% # Type of FU issued
system.cpu.iq.FU_type_0::SimdFloatMult              0      0.00%     65.24% # Type of FU issued
system.cpu.iq.FU_type_0::SimdFloatMultAcc            0      0.00%     65.24% # Type of FU issued
system.cpu.iq.FU_type_0::SimdFloatSqrt              0      0.00%     65.24% # Type of FU issued
system.cpu.iq.FU_type_0::SimdReduceAdd              0      0.00%     65.24% # Type of FU issued
system.cpu.iq.FU_type_0::SimdReduceAlu              0      0.00%     65.24% # Type of FU issued
system.cpu.iq.FU_type_0::SimdReduceCmp              0      0.00%     65.24% # Type of FU issued
system.cpu.iq.FU_type_0::SimdFloatReduceAdd            0      0.00%     65.24% # Type of FU issued
system.cpu.iq.FU_type_0::SimdFloatReduceCmp            0      0.00%     65.24% # Type of FU issued
system.cpu.iq.FU_type_0::SimdAes                    0      0.00%     65.24% # Type of FU issued
system.cpu.iq.FU_type_0::SimdAesMix                 0      0.00%     65.24% # Type of FU issued
system.cpu.iq.FU_type_0::SimdSha1Hash               0      0.00%     65.24% # Type of FU issued
system.cpu.iq.FU_type_0::SimdSha1Hash2              0      0.00%     65.24% # Type of FU issued
system.cpu.iq.FU_type_0::SimdSha256Hash             0      0.00%     65.24% # Type of FU issued
system.cpu.iq.FU_type_0::SimdSha256Hash2            0      0.00%     65.24% # Type of FU issued
system.cpu.iq.FU_type_0::SimdShaSigma2              0      0.00%     65.24% # Type of FU issued
system.cpu.iq.FU_type_0::SimdShaSigma3              0      0.00%     65.24% # Type of FU issued
system.cpu.iq.FU_type_0::SimdPredAlu                0      0.00%     65.24% # Type of FU issued
system.cpu.iq.FU_type_0::MemRead               203806     15.08%     80.32% # Type of FU issued
system.cpu.iq.FU_type_0::MemWrite              265963     19.68%    100.00% # Type of FU issued
system.cpu.iq.FU_type_0::FloatMemRead               0      0.00%    100.00% # Type of FU issued
system.cpu.iq.FU_type_0::FloatMemWrite              0      0.00%    100.00% # Type of FU issued
system.cpu.iq.FU_type_0::IprAccess                  0      0.00%    100.00% # Type of FU issued
system.cpu.iq.FU_type_0::InstPrefetch               0      0.00%    100.00% # Type of FU issued
system.cpu.iq.FU_type_0::total                1351486                       # Type of FU issued
system.cpu.iq.fp_alu_accesses                       0                       # Number of floating point alu accesses
system.cpu.iq.fp_inst_queue_reads                   0                       # Number of floating instruction queue reads
system.cpu.iq.fp_inst_queue_wakeup_accesses            0                       # Number of floating instruction queue wakeup accesses
system.cpu.iq.fp_inst_queue_writes                  0                       # Number of floating instruction queue writes
system.cpu.iq.fu_busy_cnt                       34313                       # FU busy when requested
system.cpu.iq.fu_busy_rate                   0.025389                       # FU busy rate (busy events/executed inst)
system.cpu.iq.fu_full::No_OpClass                   0      0.00%      0.00% # attempts to use FU when none available
system.cpu.iq.fu_full::IntAlu                    1382      4.03%      4.03% # attempts to use FU when none available
system.cpu.iq.fu_full::IntMult                     10      0.03%      4.06% # attempts to use FU when none available
system.cpu.iq.fu_full::IntDiv                       0      0.00%      4.06% # attempts to use FU when none available
system.cpu.iq.fu_full::FloatAdd                     0      0.00%      4.06% # attempts to use FU when none available
system.cpu.iq.fu_full::FloatCmp                     0      0.00%      4.06% # attempts to use FU when none available
system.cpu.iq.fu_full::FloatCvt                     0      0.00%      4.06% # attempts to use FU when none available
system.cpu.iq.fu_full::FloatMult                    0      0.00%      4.06% # attempts to use FU when none available
system.cpu.iq.fu_full::FloatMultAcc              2189      6.38%     10.44% # attempts to use FU when none available
system.cpu.iq.fu_full::FloatDiv                     0      0.00%     10.44% # attempts to use FU when none available
system.cpu.iq.fu_full::FloatMisc                    1      0.00%     10.44% # attempts to use FU when none available
system.cpu.iq.fu_full::FloatSqrt                    0      0.00%     10.44% # attempts to use FU when none available
system.cpu.iq.fu_full::SimdAdd                      0      0.00%     10.44% # attempts to use FU when none available
system.cpu.iq.fu_full::SimdAddAcc                   0      0.00%     10.44% # attempts to use FU when none available
system.cpu.iq.fu_full::SimdAlu                     55      0.16%     10.60% # attempts to use FU when none available
system.cpu.iq.fu_full::SimdCmp                     58      0.17%     10.77% # attempts to use FU when none available
system.cpu.iq.fu_full::SimdCvt                      0      0.00%     10.77% # attempts to use FU when none available
system.cpu.iq.fu_full::SimdMisc                     0      0.00%     10.77% # attempts to use FU when none available
system.cpu.iq.fu_full::SimdMult                     0      0.00%     10.77% # attempts to use FU when none available
system.cpu.iq.fu_full::SimdMultAcc                  0      0.00%     10.77% # attempts to use FU when none available
system.cpu.iq.fu_full::SimdShift                    0      0.00%     10.77% # attempts to use FU when none available
system.cpu.iq.fu_full::SimdShiftAcc                 0      0.00%     10.77% # attempts to use FU when none available
system.cpu.iq.fu_full::SimdDiv                      0      0.00%     10.77% # attempts to use FU when none available
system.cpu.iq.fu_full::SimdSqrt                     0      0.00%     10.77% # attempts to use FU when none available
system.cpu.iq.fu_full::SimdFloatAdd                 0      0.00%     10.77% # attempts to use FU when none available
system.cpu.iq.fu_full::SimdFloatAlu                 0      0.00%     10.77% # attempts to use FU when none available
system.cpu.iq.fu_full::SimdFloatCmp                 0      0.00%     10.77% # attempts to use FU when none available
system.cpu.iq.fu_full::SimdFloatCvt                 0      0.00%     10.77% # attempts to use FU when none available
system.cpu.iq.fu_full::SimdFloatDiv                 0      0.00%     10.77% # attempts to use FU when none available
system.cpu.iq.fu_full::SimdFloatMisc                0      0.00%     10.77% # attempts to use FU when none available
system.cpu.iq.fu_full::SimdFloatMult                0      0.00%     10.77% # attempts to use FU when none available
system.cpu.iq.fu_full::SimdFloatMultAcc             0      0.00%     10.77% # attempts to use FU when none available
system.cpu.iq.fu_full::SimdFloatSqrt                0      0.00%     10.77% # attempts to use FU when none available
system.cpu.iq.fu_full::SimdReduceAdd                0      0.00%     10.77% # attempts to use FU when none available
system.cpu.iq.fu_full::SimdReduceAlu                0      0.00%     10.77% # attempts to use FU when none available
system.cpu.iq.fu_full::SimdReduceCmp                0      0.00%     10.77% # attempts to use FU when none available
system.cpu.iq.fu_full::SimdFloatReduceAdd            0      0.00%     10.77% # attempts to use FU when none available
system.cpu.iq.fu_full::SimdFloatReduceCmp            0      0.00%     10.77% # attempts to use FU when none available
system.cpu.iq.fu_full::SimdAes                      0      0.00%     10.77% # attempts to use FU when none available
system.cpu.iq.fu_full::SimdAesMix                   0      0.00%     10.77% # attempts to use FU when none available
system.cpu.iq.fu_full::SimdSha1Hash                 0      0.00%     10.77% # attempts to use FU when none available
system.cpu.iq.fu_full::SimdSha1Hash2                0      0.00%     10.77% # attempts to use FU when none available
system.cpu.iq.fu_full::SimdSha256Hash               0      0.00%     10.77% # attempts to use FU when none available
system.cpu.iq.fu_full::SimdSha256Hash2              0      0.00%     10.77% # attempts to use FU when none available
system.cpu.iq.fu_full::SimdShaSigma2                0      0.00%     10.77% # attempts to use FU when none available
system.cpu.iq.fu_full::SimdShaSigma3                0      0.00%     10.77% # attempts to use FU when none available
system.cpu.iq.fu_full::SimdPredAlu                  0      0.00%     10.77% # attempts to use FU when none available
system.cpu.iq.fu_full::MemRead                   5079     14.80%     25.57% # attempts to use FU when none available
system.cpu.iq.fu_full::MemWrite                 25539     74.43%    100.00% # attempts to use FU when none available
system.cpu.iq.fu_full::FloatMemRead                 0      0.00%    100.00% # attempts to use FU when none available
system.cpu.iq.fu_full::FloatMemWrite                0      0.00%    100.00% # attempts to use FU when none available
system.cpu.iq.fu_full::IprAccess                    0      0.00%    100.00% # attempts to use FU when none available
system.cpu.iq.fu_full::InstPrefetch                 0      0.00%    100.00% # attempts to use FU when none available
system.cpu.iq.int_alu_accesses                1285965                       # Number of integer alu accesses
system.cpu.iq.int_inst_queue_reads            3376906                       # Number of integer instruction queue reads
system.cpu.iq.int_inst_queue_wakeup_accesses      1240158                       # Number of integer instruction queue wakeup accesses
system.cpu.iq.int_inst_queue_writes           1370400                       # Number of integer instruction queue writes
system.cpu.iq.iqInstsAdded                    1372463                       # Number of instructions added to the IQ (excludes non-spec)
system.cpu.iq.iqInstsIssued                   1351486                       # Number of instructions issued
system.cpu.iq.iqNonSpecInstsAdded                 445                       # Number of non-speculative instructions added to the IQ
system.cpu.iq.iqSquashedInstsExamined           97780                       # Number of squashed instructions iterated over during squash; mainly for profiling
system.cpu.iq.iqSquashedInstsIssued               400                       # Number of squashed instructions issued
system.cpu.iq.iqSquashedNonSpecRemoved             40                       # Number of squashed non-spec instructions that were removed
system.cpu.iq.iqSquashedOperandsExamined        55387                       # Number of squashed operands that are examined and possibly removed from graph
system.cpu.iq.issued_per_cycle::samples        836558                       # Number of insts issued each cycle
system.cpu.iq.issued_per_cycle::mean         1.615532                       # Number of insts issued each cycle
system.cpu.iq.issued_per_cycle::stdev        2.123014                       # Number of insts issued each cycle
system.cpu.iq.issued_per_cycle::underflows            0      0.00%      0.00% # Number of insts issued each cycle
system.cpu.iq.issued_per_cycle::0              416247     49.76%     49.76% # Number of insts issued each cycle
system.cpu.iq.issued_per_cycle::1              104108     12.44%     62.20% # Number of insts issued each cycle
system.cpu.iq.issued_per_cycle::2               71428      8.54%     70.74% # Number of insts issued each cycle
system.cpu.iq.issued_per_cycle::3               88779     10.61%     81.35% # Number of insts issued each cycle
system.cpu.iq.issued_per_cycle::4               53112      6.35%     87.70% # Number of insts issued each cycle
system.cpu.iq.issued_per_cycle::5               37624      4.50%     92.20% # Number of insts issued each cycle
system.cpu.iq.issued_per_cycle::6               32485      3.88%     96.08% # Number of insts issued each cycle
system.cpu.iq.issued_per_cycle::7               19493      2.33%     98.41% # Number of insts issued each cycle
system.cpu.iq.issued_per_cycle::8               13282      1.59%    100.00% # Number of insts issued each cycle
system.cpu.iq.issued_per_cycle::overflows            0      0.00%    100.00% # Number of insts issued each cycle
system.cpu.iq.issued_per_cycle::min_value            0                       # Number of insts issued each cycle
system.cpu.iq.issued_per_cycle::max_value            8                       # Number of insts issued each cycle
system.cpu.iq.issued_per_cycle::total          836558                       # Number of insts issued each cycle
system.cpu.iq.rate                           1.437413                       # Inst issue rate
system.cpu.iq.vec_alu_accesses                  98921                       # Number of vector alu accesses
system.cpu.iq.vec_inst_queue_reads             197332                       # Number of vector instruction queue reads
system.cpu.iq.vec_inst_queue_wakeup_accesses        97292                       # Number of vector instruction queue wakeup accesses
system.cpu.iq.vec_inst_queue_writes            100349                       # Number of vector instruction queue writes
system.cpu.itb.accesses                             0                       # DTB accesses
system.cpu.itb.align_faults                         0                       # Number of TLB faults due to alignment restrictions
system.cpu.itb.domain_faults                        0                       # Number of TLB faults due to domain restrictions
system.cpu.itb.flush_entries                        0                       # Number of entries that have been flushed from TLB
system.cpu.itb.flush_tlb                            0                       # Number of times complete TLB was flushed
system.cpu.itb.flush_tlb_asid                       0                       # Number of times TLB was flushed by ASID
system.cpu.itb.flush_tlb_mva                        0                       # Number of times TLB was flushed by MVA
system.cpu.itb.flush_tlb_mva_asid                   0                       # Number of times TLB was flushed by MVA & ASID
system.cpu.itb.hits                                 0                       # DTB hits
system.cpu.itb.inst_accesses                        0                       # ITB inst accesses
system.cpu.itb.inst_hits                            0                       # ITB inst hits
system.cpu.itb.inst_misses                          0                       # ITB inst misses
system.cpu.itb.misses                               0                       # DTB misses
system.cpu.itb.perms_faults                         0                       # Number of TLB faults due to permissions restrictions
system.cpu.itb.prefetch_faults                      0                       # Number of TLB faults due to prefetch
system.cpu.itb.read_accesses                        0                       # DTB read accesses
system.cpu.itb.read_hits                            0                       # DTB read hits
system.cpu.itb.read_misses                          0                       # DTB read misses
system.cpu.itb.stage2_mmu.stage2_tlb.accesses            0                       # DTB accesses
system.cpu.itb.stage2_mmu.stage2_tlb.align_faults            0                       # Number of TLB faults due to alignment restrictions
system.cpu.itb.stage2_mmu.stage2_tlb.domain_faults            0                       # Number of TLB faults due to domain restrictions
system.cpu.itb.stage2_mmu.stage2_tlb.flush_entries            0                       # Number of entries that have been flushed from TLB
system.cpu.itb.stage2_mmu.stage2_tlb.flush_tlb            0                       # Number of times complete TLB was flushed
system.cpu.itb.stage2_mmu.stage2_tlb.flush_tlb_asid            0                       # Number of times TLB was flushed by ASID
system.cpu.itb.stage2_mmu.stage2_tlb.flush_tlb_mva            0                       # Number of times TLB was flushed by MVA
system.cpu.itb.stage2_mmu.stage2_tlb.flush_tlb_mva_asid            0                       # Number of times TLB was flushed by MVA & ASID
system.cpu.itb.stage2_mmu.stage2_tlb.hits            0                       # DTB hits
system.cpu.itb.stage2_mmu.stage2_tlb.inst_accesses            0                       # ITB inst accesses
system.cpu.itb.stage2_mmu.stage2_tlb.inst_hits            0                       # ITB inst hits
system.cpu.itb.stage2_mmu.stage2_tlb.inst_misses            0                       # ITB inst misses
system.cpu.itb.stage2_mmu.stage2_tlb.misses            0                       # DTB misses
system.cpu.itb.stage2_mmu.stage2_tlb.perms_faults            0                       # Number of TLB faults due to permissions restrictions
system.cpu.itb.stage2_mmu.stage2_tlb.prefetch_faults            0                       # Number of TLB faults due to prefetch
system.cpu.itb.stage2_mmu.stage2_tlb.read_accesses            0                       # DTB read accesses
system.cpu.itb.stage2_mmu.stage2_tlb.read_hits            0                       # DTB read hits
system.cpu.itb.stage2_mmu.stage2_tlb.read_misses            0                       # DTB read misses
system.cpu.itb.stage2_mmu.stage2_tlb.walker.walkRequestOrigin_Requested::Data            0                       # Table walker requests started/completed, data/inst
system.cpu.itb.stage2_mmu.stage2_tlb.walker.walkRequestOrigin_Requested::Inst            0                       # Table walker requests started/completed, data/inst
system.cpu.itb.stage2_mmu.stage2_tlb.walker.walkRequestOrigin_Requested::total            0                       # Table walker requests started/completed, data/inst
system.cpu.itb.stage2_mmu.stage2_tlb.walker.walkRequestOrigin_Completed::Data            0                       # Table walker requests started/completed, data/inst
system.cpu.itb.stage2_mmu.stage2_tlb.walker.walkRequestOrigin_Completed::Inst            0                       # Table walker requests started/completed, data/inst
system.cpu.itb.stage2_mmu.stage2_tlb.walker.walkRequestOrigin_Completed::total            0                       # Table walker requests started/completed, data/inst
system.cpu.itb.stage2_mmu.stage2_tlb.walker.walkRequestOrigin::total            0                       # Table walker requests started/completed, data/inst
system.cpu.itb.stage2_mmu.stage2_tlb.walker.walks            0                       # Table walker walks requested
system.cpu.itb.stage2_mmu.stage2_tlb.write_accesses            0                       # DTB write accesses
system.cpu.itb.stage2_mmu.stage2_tlb.write_hits            0                       # DTB write hits
system.cpu.itb.stage2_mmu.stage2_tlb.write_misses            0                       # DTB write misses
system.cpu.itb.walker.walkRequestOrigin_Requested::Data            0                       # Table walker requests started/completed, data/inst
system.cpu.itb.walker.walkRequestOrigin_Requested::Inst            0                       # Table walker requests started/completed, data/inst
system.cpu.itb.walker.walkRequestOrigin_Requested::total            0                       # Table walker requests started/completed, data/inst
system.cpu.itb.walker.walkRequestOrigin_Completed::Data            0                       # Table walker requests started/completed, data/inst
system.cpu.itb.walker.walkRequestOrigin_Completed::Inst            0                       # Table walker requests started/completed, data/inst
system.cpu.itb.walker.walkRequestOrigin_Completed::total            0                       # Table walker requests started/completed, data/inst
system.cpu.itb.walker.walkRequestOrigin::total            0                       # Table walker requests started/completed, data/inst
system.cpu.itb.walker.walks                         0                       # Table walker walks requested
system.cpu.itb.write_accesses                       0                       # DTB write accesses
system.cpu.itb.write_hits                           0                       # DTB write hits
system.cpu.itb.write_misses                         0                       # DTB write misses
system.cpu.memDep0.conflictingLoads              3011                       # Number of conflicting loads.
system.cpu.memDep0.conflictingStores            22135                       # Number of conflicting stores.
system.cpu.memDep0.insertedLoads               205581                       # Number of loads inserted to the mem dependence unit.
system.cpu.memDep0.insertedStores              268653                       # Number of stores inserted to the mem dependence unit.
system.cpu.misc_regfile_reads                 1119143                       # number of misc regfile reads
system.cpu.misc_regfile_writes                  45403                       # number of misc regfile writes
system.cpu.numCycles                           940221                       # number of cpu cycles simulated
system.cpu.numWorkItemsCompleted                    0                       # number of work items this cpu completed
system.cpu.numWorkItemsStarted                      0                       # number of work items this cpu started
system.cpu.rename.BlockCycles                   17736                       # Number of cycles rename is blocking
system.cpu.rename.CommittedMaps               1164220                       # Number of HB maps that are committed
system.cpu.rename.IQFullEvents                    642                       # Number of times rename has blocked due to IQ full
system.cpu.rename.IdleCycles                   440649                       # Number of cycles rename is idle
system.cpu.rename.LQFullEvents                     50                       # Number of times rename has blocked due to LQ full
system.cpu.rename.ROBFullEvents                     4                       # Number of times rename has blocked due to ROB full
system.cpu.rename.RenameLookups               2332410                       # Number of register rename lookups that rename has made
system.cpu.rename.RenamedInsts                1390932                       # Number of instructions processed by rename
system.cpu.rename.RenamedOperands             1277822                       # Number of destination operands rename has renamed
system.cpu.rename.RunCycles                    248421                       # Number of cycles rename is running
system.cpu.rename.SQFullEvents                  73743                       # Number of times rename has blocked due to SQ full
system.cpu.rename.SquashCycles                   5023                       # Number of cycles rename is squashing
system.cpu.rename.UnblockCycles                 79014                       # Number of cycles rename is unblocking
system.cpu.rename.UndoneMaps                   113560                       # Number of HB maps that are undone due to squashing
system.cpu.rename.int_rename_lookups          1637074                       # Number of integer rename lookups
system.cpu.rename.serializeStallCycles          45715                       # count of cycles rename stalled for serializing inst
system.cpu.rename.serializingInsts               3338                       # count of serializing insts renamed
system.cpu.rename.skidInsts                     51669                       # count of insts added to the skid buffer
system.cpu.rename.tempSerializingInsts            449                       # count of temporary serializing insts renamed
system.cpu.rename.vec_rename_lookups           121369                       # Number of vector rename lookups
system.cpu.rob.rob_reads                      2127189                       # The number of ROB reads
system.cpu.rob.rob_writes                     2766044                       # The number of ROB writes
system.cpu.timesIdled                            3668                       # Number of times that the entire CPU went into an idle state and unscheduled itself
system.cpu.vec_regfile_reads                   119972                       # number of vector regfile reads
system.cpu.vec_regfile_writes                   92291                       # number of vector regfile writes
system.cpu.workload.numSyscalls                    20                       # Number of system calls
system.membus.snoop_filter.hit_multi_requests            0                       # Number of requests hitting in the snoop filter with multiple (>1) holders of the requested data.
system.membus.snoop_filter.hit_multi_snoops            0                       # Number of snoops hitting in the snoop filter with multiple (>1) holders of the requested data.
system.membus.snoop_filter.hit_single_requests            0                       # Number of requests hitting in the snoop filter with a single holder of the requested data.
system.membus.snoop_filter.hit_single_snoops            0                       # Number of snoops hitting in the snoop filter with a single holder of the requested data.
system.membus.snoop_filter.tot_requests          1865                       # Total number of requests made to the snoop filter.
system.membus.snoop_filter.tot_snoops               0                       # Total number of snoops made to the snoop filter.
system.tol2bus.snoop_filter.hit_multi_requests           68                       # Number of requests hitting in the snoop filter with multiple (>1) holders of the requested data.
system.tol2bus.snoop_filter.hit_multi_snoops            0                       # Number of snoops hitting in the snoop filter with multiple (>1) holders of the requested data.
system.tol2bus.snoop_filter.hit_single_requests        29636                       # Number of requests hitting in the snoop filter with a single holder of the requested data.
system.tol2bus.snoop_filter.hit_single_snoops            0                       # Number of snoops hitting in the snoop filter with a single holder of the requested data.
system.tol2bus.snoop_filter.tot_requests        60104                       # Total number of requests made to the snoop filter.
system.tol2bus.snoop_filter.tot_snoops              0                       # Total number of snoops made to the snoop filter.
system.membus.trans_dist::ReadResp               1396                       # Transaction distribution
system.membus.trans_dist::ReadExReq               457                       # Transaction distribution
system.membus.trans_dist::ReadExResp              457                       # Transaction distribution
system.membus.trans_dist::ReadSharedReq          1396                       # Transaction distribution
system.membus.trans_dist::InvalidateReq            12                       # Transaction distribution
system.membus.pkt_count_system.l2.mem_side::system.mem_ctrls.port         3718                       # Packet count per connected master and slave (bytes)
system.membus.pkt_count::total                   3718                       # Packet count per connected master and slave (bytes)
system.membus.pkt_size_system.l2.mem_side::system.mem_ctrls.port       118592                       # Cumulative packet size per connected master and slave (bytes)
system.membus.pkt_size::total                  118592                       # Cumulative packet size per connected master and slave (bytes)
system.membus.snoops                                0                       # Total snoops (count)
system.membus.snoopTraffic                          0                       # Total snoop traffic (bytes)
system.membus.snoop_fanout::samples              1865                       # Request fanout histogram
system.membus.snoop_fanout::mean                    0                       # Request fanout histogram
system.membus.snoop_fanout::stdev                   0                       # Request fanout histogram
system.membus.snoop_fanout::underflows              0      0.00%      0.00% # Request fanout histogram
system.membus.snoop_fanout::0                    1865    100.00%    100.00% # Request fanout histogram
system.membus.snoop_fanout::1                       0      0.00%    100.00% # Request fanout histogram
system.membus.snoop_fanout::overflows               0      0.00%    100.00% # Request fanout histogram
system.membus.snoop_fanout::min_value               0                       # Request fanout histogram
system.membus.snoop_fanout::max_value               0                       # Request fanout histogram
system.membus.snoop_fanout::total                1865                       # Request fanout histogram
system.membus.reqLayer0.occupancy             2361000                       # Layer occupancy (ticks)
system.membus.reqLayer0.utilization               0.5                       # Layer utilization (%)
system.membus.respLayer1.occupancy            9823250                       # Layer occupancy (ticks)
system.membus.respLayer1.utilization              2.1                       # Layer utilization (%)
system.membus.power_state.pwrStateResidencyTicks::UNDEFINED    470109500                       # Cumulative time (in ticks) in various power states
system.tol2bus.trans_dist::ReadResp             29839                       # Transaction distribution
system.tol2bus.trans_dist::WritebackDirty          383                       # Transaction distribution
system.tol2bus.trans_dist::WritebackClean        29032                       # Transaction distribution
system.tol2bus.trans_dist::CleanEvict             220                       # Transaction distribution
system.tol2bus.trans_dist::ReadExReq              458                       # Transaction distribution
system.tol2bus.trans_dist::ReadExResp             458                       # Transaction distribution
system.tol2bus.trans_dist::ReadCleanReq         29160                       # Transaction distribution
system.tol2bus.trans_dist::ReadSharedReq          679                       # Transaction distribution
system.tol2bus.trans_dist::InvalidateReq          172                       # Transaction distribution
system.tol2bus.trans_dist::InvalidateResp          172                       # Transaction distribution
system.tol2bus.pkt_count_system.cpu.icache.mem_side::system.l2.cpu_side        87352                       # Packet count per connected master and slave (bytes)
system.tol2bus.pkt_count_system.cpu.dcache.mem_side::system.l2.cpu_side         3221                       # Packet count per connected master and slave (bytes)
system.tol2bus.pkt_count::total                 90573                       # Packet count per connected master and slave (bytes)
system.tol2bus.pkt_size_system.cpu.icache.mem_side::system.l2.cpu_side      3724288                       # Cumulative packet size per connected master and slave (bytes)
system.tol2bus.pkt_size_system.cpu.dcache.mem_side::system.l2.cpu_side        97280                       # Cumulative packet size per connected master and slave (bytes)
system.tol2bus.pkt_size::total                3821568                       # Cumulative packet size per connected master and slave (bytes)
system.tol2bus.snoops                               0                       # Total snoops (count)
system.tol2bus.snoopTraffic                         0                       # Total snoop traffic (bytes)
system.tol2bus.snoop_fanout::samples            30469                       # Request fanout histogram
system.tol2bus.snoop_fanout::mean            0.002265                       # Request fanout histogram
system.tol2bus.snoop_fanout::stdev           0.047535                       # Request fanout histogram
system.tol2bus.snoop_fanout::underflows             0      0.00%      0.00% # Request fanout histogram
system.tol2bus.snoop_fanout::0                  30400     99.77%     99.77% # Request fanout histogram
system.tol2bus.snoop_fanout::1                     69      0.23%    100.00% # Request fanout histogram
system.tol2bus.snoop_fanout::2                      0      0.00%    100.00% # Request fanout histogram
system.tol2bus.snoop_fanout::overflows              0      0.00%    100.00% # Request fanout histogram
system.tol2bus.snoop_fanout::min_value              0                       # Request fanout histogram
system.tol2bus.snoop_fanout::max_value              1                       # Request fanout histogram
system.tol2bus.snoop_fanout::total              30469                       # Request fanout histogram
system.tol2bus.reqLayer0.occupancy           65629719                       # Layer occupancy (ticks)
system.tol2bus.reqLayer0.utilization             14.0                       # Layer utilization (%)
system.tol2bus.respLayer1.occupancy           1822937                       # Layer occupancy (ticks)
system.tol2bus.respLayer1.utilization             0.4                       # Layer utilization (%)
system.tol2bus.respLayer0.occupancy          43740000                       # Layer occupancy (ticks)
system.tol2bus.respLayer0.utilization             9.3                       # Layer utilization (%)
system.tol2bus.power_state.pwrStateResidencyTicks::UNDEFINED    470109500                       # Cumulative time (in ticks) in various power states
system.voltage_domain.voltage                       1                       # Voltage in Volts
system.clk_domain.clock                          1000                       # Clock period in ticks
system.l2.demand_hits::.cpu.inst                12142                       # number of demand (read+write) hits
system.l2.demand_hits::.cpu.data                  342                       # number of demand (read+write) hits
system.l2.demand_hits::.cpu.icache.prefetcher        15960                       # number of demand (read+write) hits
system.l2.demand_hits::total                    28444                       # number of demand (read+write) hits
system.l2.overall_hits::.cpu.inst               12142                       # number of overall hits
system.l2.overall_hits::.cpu.data                 342                       # number of overall hits
system.l2.overall_hits::.cpu.icache.prefetcher        15960                       # number of overall hits
system.l2.overall_hits::total                   28444                       # number of overall hits
system.l2.demand_misses::.cpu.inst               1058                       # number of demand (read+write) misses
system.l2.demand_misses::.cpu.data                795                       # number of demand (read+write) misses
system.l2.demand_misses::total                   1853                       # number of demand (read+write) misses
system.l2.overall_misses::.cpu.inst              1058                       # number of overall misses
system.l2.overall_misses::.cpu.data               795                       # number of overall misses
system.l2.overall_misses::total                  1853                       # number of overall misses
system.l2.demand_miss_latency::.cpu.inst     84208500                       # number of demand (read+write) miss cycles
system.l2.demand_miss_latency::.cpu.data     64043000                       # number of demand (read+write) miss cycles
system.l2.demand_miss_latency::total        148251500                       # number of demand (read+write) miss cycles
system.l2.overall_miss_latency::.cpu.inst     84208500                       # number of overall miss cycles
system.l2.overall_miss_latency::.cpu.data     64043000                       # number of overall miss cycles
system.l2.overall_miss_latency::total       148251500                       # number of overall miss cycles
system.l2.demand_accesses::.cpu.inst            13200                       # number of demand (read+write) accesses
system.l2.demand_accesses::.cpu.data             1137                       # number of demand (read+write) accesses
system.l2.demand_accesses::.cpu.icache.prefetcher        15960                       # number of demand (read+write) accesses
system.l2.demand_accesses::total                30297                       # number of demand (read+write) accesses
system.l2.overall_accesses::.cpu.inst           13200                       # number of overall (read+write) accesses
system.l2.overall_accesses::.cpu.data            1137                       # number of overall (read+write) accesses
system.l2.overall_accesses::.cpu.icache.prefetcher        15960                       # number of overall (read+write) accesses
system.l2.overall_accesses::total               30297                       # number of overall (read+write) accesses
system.l2.demand_miss_rate::.cpu.inst        0.080152                       # miss rate for demand accesses
system.l2.demand_miss_rate::.cpu.data        0.699208                       # miss rate for demand accesses
system.l2.demand_miss_rate::total            0.061161                       # miss rate for demand accesses
system.l2.overall_miss_rate::.cpu.inst       0.080152                       # miss rate for overall accesses
system.l2.overall_miss_rate::.cpu.data       0.699208                       # miss rate for overall accesses
system.l2.overall_miss_rate::total           0.061161                       # miss rate for overall accesses
system.l2.demand_avg_miss_latency::.cpu.inst 79592.155009                       # average overall miss latency
system.l2.demand_avg_miss_latency::.cpu.data 80557.232704                       # average overall miss latency
system.l2.demand_avg_miss_latency::total 80006.206152                       # average overall miss latency
system.l2.overall_avg_miss_latency::.cpu.inst 79592.155009                       # average overall miss latency
system.l2.overall_avg_miss_latency::.cpu.data 80557.232704                       # average overall miss latency
system.l2.overall_avg_miss_latency::total 80006.206152                       # average overall miss latency
system.l2.blocked_cycles::no_mshrs                  0                       # number of cycles access was blocked
system.l2.blocked_cycles::no_targets                0                       # number of cycles access was blocked
system.l2.blocked::no_mshrs                         0                       # number of cycles access was blocked
system.l2.blocked::no_targets                       0                       # number of cycles access was blocked
system.l2.avg_blocked_cycles::no_mshrs            nan                       # average number of cycles each access was blocked
system.l2.avg_blocked_cycles::no_targets          nan                       # average number of cycles each access was blocked
system.l2.demand_mshr_misses::.cpu.inst          1058                       # number of demand (read+write) MSHR misses
system.l2.demand_mshr_misses::.cpu.data           795                       # number of demand (read+write) MSHR misses
system.l2.demand_mshr_misses::total              1853                       # number of demand (read+write) MSHR misses
system.l2.overall_mshr_misses::.cpu.inst         1058                       # number of overall MSHR misses
system.l2.overall_mshr_misses::.cpu.data          795                       # number of overall MSHR misses
system.l2.overall_mshr_misses::total             1853                       # number of overall MSHR misses
system.l2.demand_mshr_miss_latency::.cpu.inst     73628500                       # number of demand (read+write) MSHR miss cycles
system.l2.demand_mshr_miss_latency::.cpu.data     56093000                       # number of demand (read+write) MSHR miss cycles
system.l2.demand_mshr_miss_latency::total    129721500                       # number of demand (read+write) MSHR miss cycles
system.l2.overall_mshr_miss_latency::.cpu.inst     73628500                       # number of overall MSHR miss cycles
system.l2.overall_mshr_miss_latency::.cpu.data     56093000                       # number of overall MSHR miss cycles
system.l2.overall_mshr_miss_latency::total    129721500                       # number of overall MSHR miss cycles
system.l2.demand_mshr_miss_rate::.cpu.inst     0.080152                       # mshr miss rate for demand accesses
system.l2.demand_mshr_miss_rate::.cpu.data     0.699208                       # mshr miss rate for demand accesses
system.l2.demand_mshr_miss_rate::total       0.061161                       # mshr miss rate for demand accesses
system.l2.overall_mshr_miss_rate::.cpu.inst     0.080152                       # mshr miss rate for overall accesses
system.l2.overall_mshr_miss_rate::.cpu.data     0.699208                       # mshr miss rate for overall accesses
system.l2.overall_mshr_miss_rate::total      0.061161                       # mshr miss rate for overall accesses
system.l2.demand_avg_mshr_miss_latency::.cpu.inst 69592.155009                       # average overall mshr miss latency
system.l2.demand_avg_mshr_miss_latency::.cpu.data 70557.232704                       # average overall mshr miss latency
system.l2.demand_avg_mshr_miss_latency::total 70006.206152                       # average overall mshr miss latency
system.l2.overall_avg_mshr_miss_latency::.cpu.inst 69592.155009                       # average overall mshr miss latency
system.l2.overall_avg_mshr_miss_latency::.cpu.data 70557.232704                       # average overall mshr miss latency
system.l2.overall_avg_mshr_miss_latency::total 70006.206152                       # average overall mshr miss latency
system.l2.replacements                              0                       # number of replacements
system.l2.WritebackDirty_hits::.writebacks          383                       # number of WritebackDirty hits
system.l2.WritebackDirty_hits::total              383                       # number of WritebackDirty hits
system.l2.WritebackDirty_accesses::.writebacks          383                       # number of WritebackDirty accesses(hits+misses)
system.l2.WritebackDirty_accesses::total          383                       # number of WritebackDirty accesses(hits+misses)
system.l2.WritebackClean_hits::.writebacks        28964                       # number of WritebackClean hits
system.l2.WritebackClean_hits::total            28964                       # number of WritebackClean hits
system.l2.WritebackClean_accesses::.writebacks        28964                       # number of WritebackClean accesses(hits+misses)
system.l2.WritebackClean_accesses::total        28964                       # number of WritebackClean accesses(hits+misses)
system.l2.ReadExReq_hits::.cpu.data                 1                       # number of ReadExReq hits
system.l2.ReadExReq_hits::total                     1                       # number of ReadExReq hits
system.l2.ReadExReq_misses::.cpu.data             457                       # number of ReadExReq misses
system.l2.ReadExReq_misses::total                 457                       # number of ReadExReq misses
system.l2.ReadExReq_miss_latency::.cpu.data     36149000                       # number of ReadExReq miss cycles
system.l2.ReadExReq_miss_latency::total      36149000                       # number of ReadExReq miss cycles
system.l2.ReadExReq_accesses::.cpu.data           458                       # number of ReadExReq accesses(hits+misses)
system.l2.ReadExReq_accesses::total               458                       # number of ReadExReq accesses(hits+misses)
system.l2.ReadExReq_miss_rate::.cpu.data     0.997817                       # miss rate for ReadExReq accesses
system.l2.ReadExReq_miss_rate::total         0.997817                       # miss rate for ReadExReq accesses
system.l2.ReadExReq_avg_miss_latency::.cpu.data 79100.656455                       # average ReadExReq miss latency
system.l2.ReadExReq_avg_miss_latency::total 79100.656455                       # average ReadExReq miss latency
system.l2.ReadExReq_mshr_misses::.cpu.data          457                       # number of ReadExReq MSHR misses
system.l2.ReadExReq_mshr_misses::total            457                       # number of ReadExReq MSHR misses
system.l2.ReadExReq_mshr_miss_latency::.cpu.data     31579000                       # number of ReadExReq MSHR miss cycles
system.l2.ReadExReq_mshr_miss_latency::total     31579000                       # number of ReadExReq MSHR miss cycles
system.l2.ReadExReq_mshr_miss_rate::.cpu.data     0.997817                       # mshr miss rate for ReadExReq accesses
system.l2.ReadExReq_mshr_miss_rate::total     0.997817                       # mshr miss rate for ReadExReq accesses
system.l2.ReadExReq_avg_mshr_miss_latency::.cpu.data 69100.656455                       # average ReadExReq mshr miss latency
system.l2.ReadExReq_avg_mshr_miss_latency::total 69100.656455                       # average ReadExReq mshr miss latency
system.l2.ReadCleanReq_hits::.cpu.inst          12142                       # number of ReadCleanReq hits
system.l2.ReadCleanReq_hits::.cpu.icache.prefetcher        15960                       # number of ReadCleanReq hits
system.l2.ReadCleanReq_hits::total              28102                       # number of ReadCleanReq hits
system.l2.ReadCleanReq_misses::.cpu.inst         1058                       # number of ReadCleanReq misses
system.l2.ReadCleanReq_misses::total             1058                       # number of ReadCleanReq misses
system.l2.ReadCleanReq_miss_latency::.cpu.inst     84208500                       # number of ReadCleanReq miss cycles
system.l2.ReadCleanReq_miss_latency::total     84208500                       # number of ReadCleanReq miss cycles
system.l2.ReadCleanReq_accesses::.cpu.inst        13200                       # number of ReadCleanReq accesses(hits+misses)
system.l2.ReadCleanReq_accesses::.cpu.icache.prefetcher        15960                       # number of ReadCleanReq accesses(hits+misses)
system.l2.ReadCleanReq_accesses::total          29160                       # number of ReadCleanReq accesses(hits+misses)
[...]
system.cpu.icache.tags.occ_task_id_percent::1024     0.304688                       # Percentage of cache occupancy per task id
system.cpu.icache.tags.tag_accesses            345464                       # Number of tag accesses
system.cpu.icache.tags.data_accesses           345464                       # Number of data accesses
system.cpu.icache.tags.power_state.pwrStateResidencyTicks::UNDEFINED    470109500                       # Cumulative time (in ticks) in various power states
system.cpu.dtb.walker.power_state.pwrStateResidencyTicks::UNDEFINED    470109500                       # Cumulative time (in ticks) in various power states
system.cpu.dtb.stage2_mmu.stage2_tlb.walker.power_state.pwrStateResidencyTicks::UNDEFINED    470109500                       # Cumulative time (in ticks) in various power states
system.cpu.itb.walker.power_state.pwrStateResidencyTicks::UNDEFINED    470109500                       # Cumulative time (in ticks) in various power states
system.cpu.itb.stage2_mmu.stage2_tlb.walker.power_state.pwrStateResidencyTicks::UNDEFINED    470109500                       # Cumulative time (in ticks) in various power states
system.cpu.dcache.demand_hits::.cpu.data       456381                       # number of demand (read+write) hits
system.cpu.dcache.demand_hits::total           456381                       # number of demand (read+write) hits
system.cpu.dcache.overall_hits::.cpu.data       456664                       # number of overall hits
system.cpu.dcache.overall_hits::total          456664                       # number of overall hits
system.cpu.dcache.demand_misses::.cpu.data         4656                       # number of demand (read+write) misses
system.cpu.dcache.demand_misses::total           4656                       # number of demand (read+write) misses
system.cpu.dcache.overall_misses::.cpu.data         4668                       # number of overall misses
system.cpu.dcache.overall_misses::total          4668                       # number of overall misses
system.cpu.dcache.demand_miss_latency::.cpu.data    213563366                       # number of demand (read+write) miss cycles
system.cpu.dcache.demand_miss_latency::total    213563366                       # number of demand (read+write) miss cycles
system.cpu.dcache.overall_miss_latency::.cpu.data    213563366                       # number of overall miss cycles
system.cpu.dcache.overall_miss_latency::total    213563366                       # number of overall miss cycles
system.cpu.dcache.demand_accesses::.cpu.data       461037                       # number of demand (read+write) accesses
system.cpu.dcache.demand_accesses::total       461037                       # number of demand (read+write) accesses
system.cpu.dcache.overall_accesses::.cpu.data       461332                       # number of overall (read+write) accesses
system.cpu.dcache.overall_accesses::total       461332                       # number of overall (read+write) accesses
system.cpu.dcache.demand_miss_rate::.cpu.data     0.010099                       # miss rate for demand accesses
system.cpu.dcache.demand_miss_rate::total     0.010099                       # miss rate for demand accesses
system.cpu.dcache.overall_miss_rate::.cpu.data     0.010119                       # miss rate for overall accesses
system.cpu.dcache.overall_miss_rate::total     0.010119                       # miss rate for overall accesses
system.cpu.dcache.demand_avg_miss_latency::.cpu.data 45868.420533                       # average overall miss latency
system.cpu.dcache.demand_avg_miss_latency::total 45868.420533                       # average overall miss latency
system.cpu.dcache.overall_avg_miss_latency::.cpu.data 45750.506855                       # average overall miss latency
system.cpu.dcache.overall_avg_miss_latency::total 45750.506855                       # average overall miss latency
system.cpu.dcache.blocked_cycles::no_mshrs         6198                       # number of cycles access was blocked
system.cpu.dcache.blocked_cycles::no_targets            0                       # number of cycles access was blocked
system.cpu.dcache.blocked::no_mshrs               156                       # number of cycles access was blocked
system.cpu.dcache.blocked::no_targets               0                       # number of cycles access was blocked
system.cpu.dcache.avg_blocked_cycles::no_mshrs    39.730769                       # average number of cycles each access was blocked
system.cpu.dcache.avg_blocked_cycles::no_targets          nan                       # average number of cycles each access was blocked
system.cpu.dcache.writebacks::.writebacks          383                       # number of writebacks
system.cpu.dcache.writebacks::total               383                       # number of writebacks
system.cpu.dcache.demand_mshr_hits::.cpu.data         3350                       # number of demand (read+write) MSHR hits
system.cpu.dcache.demand_mshr_hits::total         3350                       # number of demand (read+write) MSHR hits
system.cpu.dcache.overall_mshr_hits::.cpu.data         3350                       # number of overall MSHR hits
system.cpu.dcache.overall_mshr_hits::total         3350                       # number of overall MSHR hits
system.cpu.dcache.demand_mshr_misses::.cpu.data         1306                       # number of demand (read+write) MSHR misses
system.cpu.dcache.demand_mshr_misses::total         1306                       # number of demand (read+write) MSHR misses
system.cpu.dcache.overall_mshr_misses::.cpu.data         1309                       # number of overall MSHR misses
system.cpu.dcache.overall_mshr_misses::total         1309                       # number of overall MSHR misses
system.cpu.dcache.demand_mshr_miss_latency::.cpu.data     71600995                       # number of demand (read+write) MSHR miss cycles
system.cpu.dcache.demand_mshr_miss_latency::total     71600995                       # number of demand (read+write) MSHR miss cycles
system.cpu.dcache.overall_mshr_miss_latency::.cpu.data     71831995                       # number of overall MSHR miss cycles
system.cpu.dcache.overall_mshr_miss_latency::total     71831995                       # number of overall MSHR miss cycles
system.cpu.dcache.demand_mshr_miss_rate::.cpu.data     0.002833                       # mshr miss rate for demand accesses
system.cpu.dcache.demand_mshr_miss_rate::total     0.002833                       # mshr miss rate for demand accesses
system.cpu.dcache.overall_mshr_miss_rate::.cpu.data     0.002837                       # mshr miss rate for overall accesses
system.cpu.dcache.overall_mshr_miss_rate::total     0.002837                       # mshr miss rate for overall accesses
system.cpu.dcache.demand_avg_mshr_miss_latency::.cpu.data 54824.651608                       # average overall mshr miss latency
system.cpu.dcache.demand_avg_mshr_miss_latency::total 54824.651608                       # average overall mshr miss latency
system.cpu.dcache.overall_avg_mshr_miss_latency::.cpu.data 54875.473644                       # average overall mshr miss latency
system.cpu.dcache.overall_avg_mshr_miss_latency::total 54875.473644                       # average overall mshr miss latency
system.cpu.dcache.replacements                    603                       # number of replacements
system.cpu.dcache.ReadReq_hits::.cpu.data       201539                       # number of ReadReq hits
system.cpu.dcache.ReadReq_hits::total          201539                       # number of ReadReq hits
system.cpu.dcache.ReadReq_misses::.cpu.data         1436                       # number of ReadReq misses
system.cpu.dcache.ReadReq_misses::total          1436                       # number of ReadReq misses
system.cpu.dcache.ReadReq_miss_latency::.cpu.data     86207000                       # number of ReadReq miss cycles
system.cpu.dcache.ReadReq_miss_latency::total     86207000                       # number of ReadReq miss cycles
system.cpu.dcache.ReadReq_accesses::.cpu.data       202975                       # number of ReadReq accesses(hits+misses)
system.cpu.dcache.ReadReq_accesses::total       202975                       # number of ReadReq accesses(hits+misses)
system.cpu.dcache.ReadReq_miss_rate::.cpu.data     0.007075                       # miss rate for ReadReq accesses
system.cpu.dcache.ReadReq_miss_rate::total     0.007075                       # miss rate for ReadReq accesses
system.cpu.dcache.ReadReq_avg_miss_latency::.cpu.data 60032.729805                       # average ReadReq miss latency
system.cpu.dcache.ReadReq_avg_miss_latency::total 60032.729805                       # average ReadReq miss latency
system.cpu.dcache.ReadReq_mshr_hits::.cpu.data          760                       # number of ReadReq MSHR hits
system.cpu.dcache.ReadReq_mshr_hits::total          760                       # number of ReadReq MSHR hits
system.cpu.dcache.ReadReq_mshr_misses::.cpu.data          676                       # number of ReadReq MSHR misses
system.cpu.dcache.ReadReq_mshr_misses::total          676                       # number of ReadReq MSHR misses
system.cpu.dcache.ReadReq_mshr_miss_latency::.cpu.data     32439500                       # number of ReadReq MSHR miss cycles
system.cpu.dcache.ReadReq_mshr_miss_latency::total     32439500                       # number of ReadReq MSHR miss cycles
system.cpu.dcache.ReadReq_mshr_miss_rate::.cpu.data     0.003330                       # mshr miss rate for ReadReq accesses
system.cpu.dcache.ReadReq_mshr_miss_rate::total     0.003330                       # mshr miss rate for ReadReq accesses
system.cpu.dcache.ReadReq_avg_mshr_miss_latency::.cpu.data 47987.426036                       # average ReadReq mshr miss latency
system.cpu.dcache.ReadReq_avg_mshr_miss_latency::total 47987.426036                       # average ReadReq mshr miss latency
system.cpu.dcache.WriteReq_hits::.cpu.data       254842                       # number of WriteReq hits
system.cpu.dcache.WriteReq_hits::total         254842                       # number of WriteReq hits
system.cpu.dcache.WriteReq_misses::.cpu.data         3213                       # number of WriteReq misses
system.cpu.dcache.WriteReq_misses::total         3213                       # number of WriteReq misses
system.cpu.dcache.WriteReq_miss_latency::.cpu.data    127133868                       # number of WriteReq miss cycles
system.cpu.dcache.WriteReq_miss_latency::total    127133868                       # number of WriteReq miss cycles
system.cpu.dcache.WriteReq_accesses::.cpu.data       258055                       # number of WriteReq accesses(hits+misses)
system.cpu.dcache.WriteReq_accesses::total       258055                       # number of WriteReq accesses(hits+misses)
system.cpu.dcache.WriteReq_miss_rate::.cpu.data     0.012451                       # miss rate for WriteReq accesses
system.cpu.dcache.WriteReq_miss_rate::total     0.012451                       # miss rate for WriteReq accesses
system.cpu.dcache.WriteReq_avg_miss_latency::.cpu.data 39568.586368                       # average WriteReq miss latency
system.cpu.dcache.WriteReq_avg_miss_latency::total 39568.586368                       # average WriteReq miss latency
system.cpu.dcache.WriteReq_mshr_hits::.cpu.data         2590                       # number of WriteReq MSHR hits
system.cpu.dcache.WriteReq_mshr_hits::total         2590                       # number of WriteReq MSHR hits
system.cpu.dcache.WriteReq_mshr_misses::.cpu.data          623                       # number of WriteReq MSHR misses
system.cpu.dcache.WriteReq_mshr_misses::total          623                       # number of WriteReq MSHR misses
system.cpu.dcache.WriteReq_mshr_miss_latency::.cpu.data     38945997                       # number of WriteReq MSHR miss cycles
system.cpu.dcache.WriteReq_mshr_miss_latency::total     38945997                       # number of WriteReq MSHR miss cycles
system.cpu.dcache.WriteReq_mshr_miss_rate::.cpu.data     0.002414                       # mshr miss rate for WriteReq accesses
system.cpu.dcache.WriteReq_mshr_miss_rate::total     0.002414                       # mshr miss rate for WriteReq accesses
system.cpu.dcache.WriteReq_avg_mshr_miss_latency::.cpu.data 62513.638844                       # average WriteReq mshr miss latency
system.cpu.dcache.WriteReq_avg_mshr_miss_latency::total 62513.638844                       # average WriteReq mshr miss latency
system.cpu.dcache.SoftPFReq_hits::.cpu.data          283                       # number of SoftPFReq hits
system.cpu.dcache.SoftPFReq_hits::total           283                       # number of SoftPFReq hits
system.cpu.dcache.SoftPFReq_misses::.cpu.data           12                       # number of SoftPFReq misses
system.cpu.dcache.SoftPFReq_misses::total           12                       # number of SoftPFReq misses
system.cpu.dcache.SoftPFReq_accesses::.cpu.data          295                       # number of SoftPFReq accesses(hits+misses)
system.cpu.dcache.SoftPFReq_accesses::total          295                       # number of SoftPFReq accesses(hits+misses)
system.cpu.dcache.SoftPFReq_miss_rate::.cpu.data     0.040678                       # miss rate for SoftPFReq accesses
system.cpu.dcache.SoftPFReq_miss_rate::total     0.040678                       # miss rate for SoftPFReq accesses
system.cpu.dcache.SoftPFReq_mshr_misses::.cpu.data            3                       # number of SoftPFReq MSHR misses
system.cpu.dcache.SoftPFReq_mshr_misses::total            3                       # number of SoftPFReq MSHR misses
system.cpu.dcache.SoftPFReq_mshr_miss_latency::.cpu.data       231000                       # number of SoftPFReq MSHR miss cycles
system.cpu.dcache.SoftPFReq_mshr_miss_latency::total       231000                       # number of SoftPFReq MSHR miss cycles
system.cpu.dcache.SoftPFReq_mshr_miss_rate::.cpu.data     0.010169                       # mshr miss rate for SoftPFReq accesses
system.cpu.dcache.SoftPFReq_mshr_miss_rate::total     0.010169                       # mshr miss rate for SoftPFReq accesses
system.cpu.dcache.SoftPFReq_avg_mshr_miss_latency::.cpu.data        77000                       # average SoftPFReq mshr miss latency
system.cpu.dcache.SoftPFReq_avg_mshr_miss_latency::total        77000                       # average SoftPFReq mshr miss latency
system.cpu.dcache.WriteLineReq_misses::.cpu.data            7                       # number of WriteLineReq misses
system.cpu.dcache.WriteLineReq_misses::total            7                       # number of WriteLineReq misses
system.cpu.dcache.WriteLineReq_miss_latency::.cpu.data       222498                       # number of WriteLineReq miss cycles
system.cpu.dcache.WriteLineReq_miss_latency::total       222498                       # number of WriteLineReq miss cycles
system.cpu.dcache.WriteLineReq_accesses::.cpu.data            7                       # number of WriteLineReq accesses(hits+misses)
system.cpu.dcache.WriteLineReq_accesses::total            7                       # number of WriteLineReq accesses(hits+misses)
system.cpu.dcache.WriteLineReq_miss_rate::.cpu.data            1                       # miss rate for WriteLineReq accesses
system.cpu.dcache.WriteLineReq_miss_rate::total            1                       # miss rate for WriteLineReq accesses
system.cpu.dcache.WriteLineReq_avg_miss_latency::.cpu.data 31785.428571                       # average WriteLineReq miss latency
system.cpu.dcache.WriteLineReq_avg_miss_latency::total 31785.428571                       # average WriteLineReq miss latency
system.cpu.dcache.WriteLineReq_mshr_misses::.cpu.data            7                       # number of WriteLineReq MSHR misses
system.cpu.dcache.WriteLineReq_mshr_misses::total            7                       # number of WriteLineReq MSHR misses
system.cpu.dcache.WriteLineReq_mshr_miss_latency::.cpu.data       215498                       # number of WriteLineReq MSHR miss cycles
system.cpu.dcache.WriteLineReq_mshr_miss_latency::total       215498                       # number of WriteLineReq MSHR miss cycles
system.cpu.dcache.WriteLineReq_mshr_miss_rate::.cpu.data            1                       # mshr miss rate for WriteLineReq accesses
system.cpu.dcache.WriteLineReq_mshr_miss_rate::total            1                       # mshr miss rate for WriteLineReq accesses
system.cpu.dcache.WriteLineReq_avg_mshr_miss_latency::.cpu.data 30785.428571                       # average WriteLineReq mshr miss latency
system.cpu.dcache.WriteLineReq_avg_mshr_miss_latency::total 30785.428571                       # average WriteLineReq mshr miss latency
system.cpu.dcache.LoadLockedReq_hits::.cpu.data          402                       # number of LoadLockedReq hits
system.cpu.dcache.LoadLockedReq_hits::total          402                       # number of LoadLockedReq hits
system.cpu.dcache.LoadLockedReq_accesses::.cpu.data          402                       # number of LoadLockedReq accesses(hits+misses)
system.cpu.dcache.LoadLockedReq_accesses::total          402                       # number of LoadLockedReq accesses(hits+misses)
system.cpu.dcache.StoreCondReq_hits::.cpu.data          384                       # number of StoreCondReq hits
system.cpu.dcache.StoreCondReq_hits::total          384                       # number of StoreCondReq hits
system.cpu.dcache.StoreCondReq_accesses::.cpu.data          384                       # number of StoreCondReq accesses(hits+misses)
system.cpu.dcache.StoreCondReq_accesses::total          384                       # number of StoreCondReq accesses(hits+misses)
system.cpu.dcache.power_state.pwrStateResidencyTicks::UNDEFINED    470109500                       # Cumulative time (in ticks) in various power states
system.cpu.dcache.tags.tagsinuse           548.020768                       # Cycle average of tags in use
system.cpu.dcache.tags.total_refs              458759                       # Total number of references to valid blocks.
system.cpu.dcache.tags.sampled_refs              1309                       # Sample count of references to valid blocks.
system.cpu.dcache.tags.avg_refs            350.465241                       # Average number of references to valid blocks.
system.cpu.dcache.tags.warmup_cycle            249500                       # Cycle when the warmup percentage was hit.
system.cpu.dcache.tags.occ_blocks::.cpu.data   548.020768                       # Average occupied blocks per requestor
system.cpu.dcache.tags.occ_percent::.cpu.data     0.535177                       # Average percentage of cache occupancy
system.cpu.dcache.tags.occ_percent::total     0.535177                       # Average percentage of cache occupancy
system.cpu.dcache.tags.occ_task_id_blocks::1024          706                       # Occupied blocks per task id
system.cpu.dcache.tags.age_task_id_blocks_1024::0            3                       # Occupied blocks per task id
system.cpu.dcache.tags.age_task_id_blocks_1024::1           40                       # Occupied blocks per task id
system.cpu.dcache.tags.age_task_id_blocks_1024::2          663                       # Occupied blocks per task id
system.cpu.dcache.tags.occ_task_id_percent::1024     0.689453                       # Percentage of cache occupancy per task id
system.cpu.dcache.tags.tag_accesses            925545                       # Number of tag accesses
system.cpu.dcache.tags.data_accesses           925545                       # Number of data accesses
system.cpu.dcache.tags.power_state.pwrStateResidencyTicks::UNDEFINED    470109500                       # Cumulative time (in ticks) in various power states
system.cpu.power_state.pwrStateResidencyTicks::ON    470109500                       # Cumulative time (in ticks) in various power states

---------- End Simulation Statistics   ----------
