
---------- Begin Simulation Statistics ----------
final_tick                                 4104966000                       # Number of ticks from beginning of simulation (restored from checkpoints and never reset)
host_inst_rate                                 178809                       # Simulator instruction rate (inst/s)
host_mem_usage                                 929028                       # Number of bytes of host memory used
host_op_rate                                   213938                       # Simulator op (including micro ops) rate (op/s)
host_seconds                                    55.93                       # Real time elapsed on the host
host_tick_rate                               73400263                       # Simulator tick rate (ticks/s)
sim_freq                                 1000000000000                       # Frequency of simulated ticks
sim_insts                                    10000001                       # Number of instructions simulated
sim_ops                                      11964616                       # Number of ops (including micro ops) simulated
sim_seconds                                  0.004105                       # Number of seconds simulated
sim_ticks                                  4104966000                       # Number of ticks simulated
system.cpu.branchPred.BTBCorrect                    0                       # Number of correct BTB predictions (this stat may not work properly.
system.cpu.branchPred.BTBHitPct             95.019296                       # BTB Hit Percentage
system.cpu.branchPred.BTBHits                 1500463                       # Number of BTB hits
system.cpu.branchPred.BTBLookups              1579114                       # Number of BTB lookups
system.cpu.branchPred.RASInCorrect               1485                       # Number of incorrect RAS predictions.
system.cpu.branchPred.condIncorrect            121956                       # Number of conditional branches incorrect
system.cpu.branchPred.condPredicted           2284656                       # Number of conditional branches predicted
system.cpu.branchPred.indirectHits             107193                       # Number of indirect target hits.
system.cpu.branchPred.indirectLookups          148550                       # Number of indirect predictor lookups.
system.cpu.branchPred.indirectMisses            41357                       # Number of indirect misses.
system.cpu.branchPred.lookups                 3210848                       # Number of BP lookups
system.cpu.branchPred.usedRAS                  347175                       # Number of times the RAS was used to get a target.
system.cpu.branchPredindirectMispredicted        10862                       # Number of mispredicted indirect branches.
system.cpu.cc_regfile_reads                   3263382                       # number of cc regfile reads
system.cpu.cc_regfile_writes                  3321802                       # number of cc regfile writes
system.cpu.commit.amos                              0                       # Number of atomic instructions committed
system.cpu.commit.branchMispredicts             99438                       # The number of times a branch was mispredicted
system.cpu.commit.branches                    2395517                       # Number of branches committed
system.cpu.commit.bw_lim_events                608947                       # number cycles where commit BW limit reached
system.cpu.commit.commitNonSpecStalls             575                       # The number of times commit has been forced to stall to communicate backwards
system.cpu.commit.commitSquashedInsts         2198905                       # The number of squashed insts skipped by commit
system.cpu.commit.committedInsts             10020916                       # Number of instructions committed
system.cpu.commit.committedOps               11985531                       # Number of ops (including micro ops) committed
system.cpu.commit.committed_per_cycle::samples      7354067                       # Number of insts commited each cycle
system.cpu.commit.committed_per_cycle::mean     1.629783                       # Number of insts commited each cycle
system.cpu.commit.committed_per_cycle::stdev     2.503553                       # Number of insts commited each cycle
system.cpu.commit.committed_per_cycle::underflows            0      0.00%      0.00% # Number of insts commited each cycle
system.cpu.commit.committed_per_cycle::0      3928556     53.42%     53.42% # Number of insts commited each cycle
system.cpu.commit.committed_per_cycle::1      1144338     15.56%     68.98% # Number of insts commited each cycle
system.cpu.commit.committed_per_cycle::2       574700      7.81%     76.80% # Number of insts commited each cycle
system.cpu.commit.committed_per_cycle::3       379983      5.17%     81.96% # Number of insts commited each cycle
system.cpu.commit.committed_per_cycle::4       301933      4.11%     86.07% # Number of insts commited each cycle
system.cpu.commit.committed_per_cycle::5       136795      1.86%     87.93% # Number of insts commited each cycle
system.cpu.commit.committed_per_cycle::6       163144      2.22%     90.15% # Number of insts commited each cycle
system.cpu.commit.committed_per_cycle::7       115671      1.57%     91.72% # Number of insts commited each cycle
system.cpu.commit.committed_per_cycle::8       608947      8.28%    100.00% # Number of insts commited each cycle
system.cpu.commit.committed_per_cycle::overflows            0      0.00%    100.00% # Number of insts commited each cycle
system.cpu.commit.committed_per_cycle::min_value            0                       # Number of insts commited each cycle
system.cpu.commit.committed_per_cycle::max_value            8                       # Number of insts commited each cycle
system.cpu.commit.committed_per_cycle::total      7354067                       # Number of insts commited each cycle
system.cpu.commit.fp_insts                          0                       # Number of committed floating point instructions.
system.cpu.commit.function_calls               279796                       # Number of function calls committed.
system.cpu.commit.int_insts                  10982358                       # Number of committed integer instructions.
system.cpu.commit.loads                       2585308                       # Number of loads committed
system.cpu.commit.membars                         562                       # Number of memory barriers committed
system.cpu.commit.op_class_0::No_OpClass            6      0.00%      0.00% # Class of committed instruction
system.cpu.commit.op_class_0::IntAlu          7768284     64.81%     64.81% # Class of committed instruction
system.cpu.commit.op_class_0::IntMult          109923      0.92%     65.73% # Class of committed instruction
system.cpu.commit.op_class_0::IntDiv             9901      0.08%     65.81% # Class of committed instruction
system.cpu.commit.op_class_0::FloatAdd              0      0.00%     65.81% # Class of committed instruction
system.cpu.commit.op_class_0::FloatCmp              1      0.00%     65.81% # Class of committed instruction
system.cpu.commit.op_class_0::FloatCvt             74      0.00%     65.81% # Class of committed instruction
system.cpu.commit.op_class_0::FloatMult            37      0.00%     65.81% # Class of committed instruction
system.cpu.commit.op_class_0::FloatMultAcc            0      0.00%     65.81% # Class of committed instruction
system.cpu.commit.op_class_0::FloatDiv              0      0.00%     65.81% # Class of committed instruction
system.cpu.commit.op_class_0::FloatMisc            38      0.00%     65.81% # Class of committed instruction
system.cpu.commit.op_class_0::FloatSqrt             2      0.00%     65.81% # Class of committed instruction
system.cpu.commit.op_class_0::SimdAdd              25      0.00%     65.82% # Class of committed instruction
system.cpu.commit.op_class_0::SimdAddAcc            0      0.00%     65.82% # Class of committed instruction
system.cpu.commit.op_class_0::SimdAlu              24      0.00%     65.82% # Class of committed instruction
system.cpu.commit.op_class_0::SimdCmp              24      0.00%     65.82% # Class of committed instruction
system.cpu.commit.op_class_0::SimdCvt               0      0.00%     65.82% # Class of committed instruction
system.cpu.commit.op_class_0::SimdMisc             86      0.00%     65.82% # Class of committed instruction
system.cpu.commit.op_class_0::SimdMult              0      0.00%     65.82% # Class of committed instruction
system.cpu.commit.op_class_0::SimdMultAcc            0      0.00%     65.82% # Class of committed instruction
system.cpu.commit.op_class_0::SimdShift             0      0.00%     65.82% # Class of committed instruction
system.cpu.commit.op_class_0::SimdShiftAcc            0      0.00%     65.82% # Class of committed instruction
system.cpu.commit.op_class_0::SimdDiv               0      0.00%     65.82% # Class of committed instruction
system.cpu.commit.op_class_0::SimdSqrt              0      0.00%     65.82% # Class of committed instruction
system.cpu.commit.op_class_0::SimdFloatAdd            0      0.00%     65.82% # Class of committed instruction
system.cpu.commit.op_class_0::SimdFloatAlu            0      0.00%     65.82% # Class of committed instruction
system.cpu.commit.op_class_0::SimdFloatCmp            0      0.00%     65.82% # Class of committed instruction
system.cpu.commit.op_class_0::SimdFloatCvt            0      0.00%     65.82% # Class of committed instruction
system.cpu.commit.op_class_0::SimdFloatDiv            0      0.00%     65.82% # Class of committed instruction
system.cpu.commit.op_class_0::SimdFloatMisc            0      0.00%     65.82% # Class of committed instruction
system.cpu.commit.op_class_0::SimdFloatMult            0      0.00%     65.82% # Class of committed instruction
system.cpu.commit.op_class_0::SimdFloatMultAcc            0      0.00%     65.82% # Class of committed instruction
system.cpu.commit.op_class_0::SimdFloatSqrt            0      0.00%     65.82% # Class of committed instruction
system.cpu.commit.op_class_0::SimdReduceAdd            0      0.00%     65.82% # Class of committed instruction
system.cpu.commit.op_class_0::SimdReduceAlu            0      0.00%     65.82% # Class of committed instruction
system.cpu.commit.op_class_0::SimdReduceCmp            0      0.00%     65.82% # Class of committed instruction
system.cpu.commit.op_class_0::SimdFloatReduceAdd            0      0.00%     65.82% # Class of committed instruction
system.cpu.commit.op_class_0::SimdFloatReduceCmp            0      0.00%     65.82% # Class of committed instruction
system.cpu.commit.op_class_0::SimdAes               0      0.00%     65.82% # Class of committed instruction
system.cpu.commit.op_class_0::SimdAesMix            0      0.00%     65.82% # Class of committed instruction
system.cpu.commit.op_class_0::SimdSha1Hash            0      0.00%     65.82% # Class of committed instruction
system.cpu.commit.op_class_0::SimdSha1Hash2            0      0.00%     65.82% # Class of committed instruction
system.cpu.commit.op_class_0::SimdSha256Hash            0      0.00%     65.82% # Class of committed instruction
system.cpu.commit.op_class_0::SimdSha256Hash2            0      0.00%     65.82% # Class of committed instruction
system.cpu.commit.op_class_0::SimdShaSigma2            0      0.00%     65.82% # Class of committed instruction
system.cpu.commit.op_class_0::SimdShaSigma3            0      0.00%     65.82% # Class of committed instruction
system.cpu.commit.op_class_0::SimdPredAlu            0      0.00%     65.82% # Class of committed instruction
system.cpu.commit.op_class_0::MemRead         2585308     21.57%     87.39% # Class of committed instruction
system.cpu.commit.op_class_0::MemWrite        1511798     12.61%    100.00% # Class of committed instruction
system.cpu.commit.op_class_0::FloatMemRead            0      0.00%    100.00% # Class of committed instruction
system.cpu.commit.op_class_0::FloatMemWrite            0      0.00%    100.00% # Class of committed instruction
system.cpu.commit.op_class_0::IprAccess             0      0.00%    100.00% # Class of committed instruction
system.cpu.commit.op_class_0::InstPrefetch            0      0.00%    100.00% # Class of committed instruction
system.cpu.commit.op_class_0::total          11985531                       # Class of committed instruction
system.cpu.commit.refs                        4097106                       # Number of memory references committed
system.cpu.commit.swp_count                         0                       # Number of s/w prefetches committed
system.cpu.commit.vec_insts                      1907                       # Number of committed Vector instructions.
system.cpu.committedInsts                    10000001                       # Number of Instructions Simulated
system.cpu.committedOps                      11964616                       # Number of Ops (including micro ops) Simulated
system.cpu.cpi                               0.820995                       # CPI: Cycles Per Instruction
system.cpu.cpi_total                         0.820995                       # CPI: Total CPI of All Threads
system.cpu.decode.BlockedCycles               1437724                       # Number of cycles decode is blocked
system.cpu.decode.BranchMispred                 23184                       # Number of times decode detected a branch misprediction
system.cpu.decode.BranchResolved              1449467                       # Number of times decode resolved a branch
system.cpu.decode.DecodedInsts               14987595                       # Number of instructions handled by decode
system.cpu.decode.IdleCycles                  3164141                       # Number of cycles decode is idle
system.cpu.decode.RunCycles                   2839980                       # Number of cycles decode is running
system.cpu.decode.SquashCycles                 100662                       # Number of cycles decode is squashing
system.cpu.decode.SquashedInsts                 71396                       # Number of squashed instructions handled by decode
system.cpu.decode.UnblockCycles                148808                       # Number of cycles decode is unblocking
system.cpu.dtb.accesses                             0                       # DTB accesses
system.cpu.dtb.align_faults                         0                       # Number of TLB faults due to alignment restrictions
system.cpu.dtb.domain_faults                        0                       # Number of TLB faults due to domain restrictions
system.cpu.dtb.flush_entries                        0                       # Number of entries that have been flushed from TLB
system.cpu.dtb.flush_tlb                            0                       # Number of times complete TLB was flushed
system.cpu.dtb.flush_tlb_asid                       0                       # Number of times TLB was flushed by ASID
system.cpu.dtb.flush_tlb_mva                        0                       # Number of times TLB was flushed by MVA
system.cpu.dtb.flush_tlb_mva_asid                   0                       # Number of times TLB was flushed by MVA & ASID
system.cpu.dtb.hits                                 0                       # DTB hits
system.cpu.dtb.inst_accesses                        0                       # ITB inst accesses
system.cpu.dtb.inst_hits                            0                       # ITB inst hits
system.cpu.dtb.inst_misses                          0                       # ITB inst misses
system.cpu.dtb.misses                               0                       # DTB misses
system.cpu.dtb.perms_faults                         0                       # Number of TLB faults due to permissions restrictions
system.cpu.dtb.prefetch_faults                      0                       # Number of TLB faults due to prefetch
system.cpu.dtb.read_accesses                        0                       # DTB read accesses
system.cpu.dtb.read_hits                            0                       # DTB read hits
system.cpu.dtb.read_misses                          0                       # DTB read misses
system.cpu.dtb.stage2_mmu.stage2_tlb.accesses            0                       # DTB accesses
system.cpu.dtb.stage2_mmu.stage2_tlb.align_faults            0                       # Number of TLB faults due to alignment restrictions
system.cpu.dtb.stage2_mmu.stage2_tlb.domain_faults            0                       # Number of TLB faults due to domain restrictions
system.cpu.dtb.stage2_mmu.stage2_tlb.flush_entries            0                       # Number of entries that have been flushed from TLB
system.cpu.dtb.stage2_mmu.stage2_tlb.flush_tlb            0                       # Number of times complete TLB was flushed
system.cpu.dtb.stage2_mmu.stage2_tlb.flush_tlb_asid            0                       # Number of times TLB was flushed by ASID
system.cpu.dtb.stage2_mmu.stage2_tlb.flush_tlb_mva            0                       # Number of times TLB was flushed by MVA
system.cpu.dtb.stage2_mmu.stage2_tlb.flush_tlb_mva_asid            0                       # Number of times TLB was flushed by MVA & ASID
system.cpu.dtb.stage2_mmu.stage2_tlb.hits            0                       # DTB hits
system.cpu.dtb.stage2_mmu.stage2_tlb.inst_accesses            0                       # ITB inst accesses
system.cpu.dtb.stage2_mmu.stage2_tlb.inst_hits            0                       # ITB inst hits
system.cpu.dtb.stage2_mmu.stage2_tlb.inst_misses            0                       # ITB inst misses
system.cpu.dtb.stage2_mmu.stage2_tlb.misses            0                       # DTB misses
system.cpu.dtb.stage2_mmu.stage2_tlb.perms_faults            0                       # Number of TLB faults due to permissions restrictions
system.cpu.dtb.stage2_mmu.stage2_tlb.prefetch_faults            0                       # Number of TLB faults due to prefetch
system.cpu.dtb.stage2_mmu.stage2_tlb.read_accesses            0                       # DTB read accesses
system.cpu.dtb.stage2_mmu.stage2_tlb.read_hits            0                       # DTB read hits
system.cpu.dtb.stage2_mmu.stage2_tlb.read_misses            0                       # DTB read misses
system.cpu.dtb.stage2_mmu.stage2_tlb.walker.walkRequestOrigin_Requested::Data            0                       # Table walker requests started/completed, data/inst
system.cpu.dtb.stage2_mmu.stage2_tlb.walker.walkRequestOrigin_Requested::Inst            0                       # Table walker requests started/completed, data/inst
system.cpu.dtb.stage2_mmu.stage2_tlb.walker.walkRequestOrigin_Requested::total            0                       # Table walker requests started/completed, data/inst
system.cpu.dtb.stage2_mmu.stage2_tlb.walker.walkRequestOrigin_Completed::Data            0                       # Table walker requests started/completed, data/inst
system.cpu.dtb.stage2_mmu.stage2_tlb.walker.walkRequestOrigin_Completed::Inst            0                       # Table walker requests started/completed, data/inst
system.cpu.dtb.stage2_mmu.stage2_tlb.walker.walkRequestOrigin_Completed::total            0                       # Table walker requests started/completed, data/inst
system.cpu.dtb.stage2_mmu.stage2_tlb.walker.walkRequestOrigin::total            0                       # Table walker requests started/completed, data/inst
system.cpu.dtb.stage2_mmu.stage2_tlb.walker.walks            0                       # Table walker walks requested
system.cpu.dtb.stage2_mmu.stage2_tlb.write_accesses            0                       # DTB write accesses
system.cpu.dtb.stage2_mmu.stage2_tlb.write_hits            0                       # DTB write hits
system.cpu.dtb.stage2_mmu.stage2_tlb.write_misses            0                       # DTB write misses
system.cpu.dtb.walker.walkRequestOrigin_Requested::Data            0                       # Table walker requests started/completed, data/inst
system.cpu.dtb.walker.walkRequestOrigin_Requested::Inst            0                       # Table walker requests started/completed, data/inst
system.cpu.dtb.walker.walkRequestOrigin_Requested::total            0                       # Table walker requests started/completed, data/inst
system.cpu.dtb.walker.walkRequestOrigin_Completed::Data            0                       # Table walker requests started/completed, data/inst
system.cpu.dtb.walker.walkRequestOrigin_Completed::Inst            0                       # Table walker requests started/completed, data/inst
system.cpu.dtb.walker.walkRequestOrigin_Completed::total            0                       # Table walker requests started/completed, data/inst
system.cpu.dtb.walker.walkRequestOrigin::total            0                       # Table walker requests started/completed, data/inst
system.cpu.dtb.walker.walks                         0                       # Table walker walks requested
system.cpu.dtb.write_accesses                       0                       # DTB write accesses
system.cpu.dtb.write_hits                           0                       # DTB write hits
system.cpu.dtb.write_misses                         0                       # DTB write misses
system.cpu.fetch.Branches                     3210848                       # Number of branches that fetch encountered
system.cpu.fetch.CacheLines                   1993892                       # Number of cache lines fetched
system.cpu.fetch.Cycles                       4140979                       # Number of cycles fetch has run and was not squashing or blocked
system.cpu.fetch.IcacheSquashes                 49306                       # Number of outstanding Icache misses that were squashed
system.cpu.fetch.Insts                       13246181                       # Number of instructions fetch has processed
system.cpu.fetch.MiscStallCycles                   96                       # Number of cycles fetch has spent waiting on interrupts, or bad addresses, or out of MSHRs
system.cpu.fetch.PendingTrapStallCycles           486                       # Number of stall cycles due to pending traps
system.cpu.fetch.SquashCycles                  246496                       # Number of cycles fetch has spent squashing
system.cpu.fetch.branchRate                  0.391092                       # Number of branch fetches per cycle
system.cpu.fetch.icacheStallCycles            3426506                       # Number of cycles fetch is stalled on an Icache miss
system.cpu.fetch.predictedBranches            1954831                       # Number of branches that fetch has predicted taken
system.cpu.fetch.rate                        1.613430                       # Number of inst fetches per cycle
system.cpu.fetch.rateDist::samples            7691315                       # Number of instructions fetched each cycle (Total)
system.cpu.fetch.rateDist::mean              2.041495                       # Number of instructions fetched each cycle (Total)
system.cpu.fetch.rateDist::stdev             2.884279                       # Number of instructions fetched each cycle (Total)
system.cpu.fetch.rateDist::underflows               0      0.00%      0.00% # Number of instructions fetched each cycle (Total)
system.cpu.fetch.rateDist::0                  4407527     57.31%     57.31% # Number of instructions fetched each cycle (Total)
system.cpu.fetch.rateDist::1                   415366      5.40%     62.71% # Number of instructions fetched each cycle (Total)
system.cpu.fetch.rateDist::2                   402180      5.23%     67.93% # Number of instructions fetched each cycle (Total)
system.cpu.fetch.rateDist::3                   435142      5.66%     73.59% # Number of instructions fetched each cycle (Total)
system.cpu.fetch.rateDist::4                   290999      3.78%     77.38% # Number of instructions fetched each cycle (Total)
system.cpu.fetch.rateDist::5                   348678      4.53%     81.91% # Number of instructions fetched each cycle (Total)
system.cpu.fetch.rateDist::6                   303708      3.95%     85.86% # Number of instructions fetched each cycle (Total)
system.cpu.fetch.rateDist::7                   254726      3.31%     89.17% # Number of instructions fetched each cycle (Total)
system.cpu.fetch.rateDist::8                   832989     10.83%    100.00% # Number of instructions fetched each cycle (Total)
system.cpu.fetch.rateDist::overflows                0      0.00%    100.00% # Number of instructions fetched each cycle (Total)
system.cpu.fetch.rateDist::min_value                0                       # Number of instructions fetched each cycle (Total)
system.cpu.fetch.rateDist::max_value                8                       # Number of instructions fetched each cycle (Total)
system.cpu.fetch.rateDist::total              7691315                       # Number of instructions fetched each cycle (Total)
system.cpu.icache.prefetcher.num_hwpf_issued            0                       # number of hwpf issued
system.cpu.icache.prefetcher.pfBufferHit            0                       # number of redundant prefetches already in prefetch queue
system.cpu.icache.prefetcher.pfIdentified            0                       # number of prefetch candidates identified
system.cpu.icache.prefetcher.pfInCache              0                       # number of redundant prefetches already in cache/mshr dropped
system.cpu.icache.prefetcher.pfRemovedFull            0                       # number of prefetches dropped due to prefetch queue size
system.cpu.icache.prefetcher.pfSpanPage             0                       # number of prefetches that crossed the page
system.cpu.idleCycles                          518634                       # Total number of cycles that the CPU has spent unscheduled due to idling
system.cpu.iew.branchMispredicts               132656                       # Number of branch mispredicts detected at execute
system.cpu.iew.exec_branches                  2616917                       # Number of branches executed
system.cpu.iew.exec_nop                         25473                       # number of nop insts executed
system.cpu.iew.exec_rate                     1.634055                       # Inst execution rate
system.cpu.iew.exec_refs                      4713851                       # number of memory reference insts executed
system.cpu.iew.exec_stores                    1608436                       # Number of stores executed
system.cpu.iew.exec_swp                             0                       # number of swp insts executed
system.cpu.iew.iewBlockCycles                  326017                       # Number of cycles IEW is blocking
system.cpu.iew.iewDispLoadInsts               3142311                       # Number of dispatched load instructions
system.cpu.iew.iewDispNonSpecInsts                664                       # Number of dispatched non-speculative instructions
system.cpu.iew.iewDispSquashedInsts             23987                       # Number of squashed instructions skipped by dispatch
system.cpu.iew.iewDispStoreInsts              1699389                       # Number of dispatched store instructions
system.cpu.iew.iewDispatchedInsts            14188602                       # Number of instructions dispatched to IQ
system.cpu.iew.iewExecLoadInsts               3105415                       # Number of load instructions executed
system.cpu.iew.iewExecSquashedInsts            165618                       # Number of squashed instructions skipped in execute
system.cpu.iew.iewExecutedInsts              13415510                       # Number of executed instructions
system.cpu.iew.iewIQFullEvents                   5505                       # Number of times the IQ has become full, causing a stall
system.cpu.iew.iewIdleCycles                        0                       # Number of cycles IEW is idle
system.cpu.iew.iewLSQFullEvents                106640                       # Number of times the LSQ has become full, causing a stall
system.cpu.iew.iewSquashCycles                 100662                       # Number of cycles IEW is squashing
system.cpu.iew.iewUnblockCycles                113160                       # Number of cycles IEW is unblocking
system.cpu.iew.lsq.thread0.blockedLoads             0                       # Number of blocked loads due to partial load-store forwarding
system.cpu.iew.lsq.thread0.cacheBlocked           128                       # Number of times an access to memory failed due to the cache being blocked
system.cpu.iew.lsq.thread0.forwLoads            62422                       # Number of loads that had data forwarded from stores
system.cpu.iew.lsq.thread0.ignoredResponses          289                       # Number of memory responses ignored because the instruction is squashed
system.cpu.iew.lsq.thread0.invAddrLoads             0                       # Number of loads ignored due to an invalid address
system.cpu.iew.lsq.thread0.invAddrSwpfs             0                       # Number of software prefetches ignored due to an invalid address
system.cpu.iew.lsq.thread0.memOrderViolation         1193                       # Number of memory ordering violations
system.cpu.iew.lsq.thread0.rescheduledLoads       156191                       # Number of loads that were rescheduled
system.cpu.iew.lsq.thread0.squashedLoads       556997                       # Number of loads squashed
system.cpu.iew.lsq.thread0.squashedStores       187591                       # Number of stores squashed
system.cpu.iew.memOrderViolationEvents           1193                       # Number of memory order violations
system.cpu.iew.predictedNotTakenIncorrect        75235                       # Number of branches that were predicted not taken incorrectly
system.cpu.iew.predictedTakenIncorrect          57421                       # Number of branches that were predicted taken incorrectly
system.cpu.iew.wb_consumers                  12904633                       # num instructions consuming a value
system.cpu.iew.wb_count                      13104469                       # cumulative count of insts written-back
system.cpu.iew.wb_fanout                     0.551043                       # average fanout of values written-back
system.cpu.iew.wb_producers                   7111004                       # num instructions producing a value
system.cpu.iew.wb_rate                       1.596169                       # insts written-back per cycle
system.cpu.iew.wb_sent                       13168128                       # cumulative count of insts sent to commit
system.cpu.int_regfile_reads                 16168374                       # number of integer regfile reads
system.cpu.int_regfile_writes                 9633938                       # number of integer regfile writes
system.cpu.ipc                               1.218034                       # IPC: Instructions Per Cycle
system.cpu.ipc_total                         1.218034                       # IPC: Total IPC of All Threads
system.cpu.iq.FU_type_0::No_OpClass               117      0.00%      0.00% # Type of FU issued
system.cpu.iq.FU_type_0::IntAlu               8663563     63.79%     63.79% # Type of FU issued
system.cpu.iq.FU_type_0::IntMult               110971      0.82%     64.61% # Type of FU issued
system.cpu.iq.FU_type_0::IntDiv                 10073      0.07%     64.68% # Type of FU issued
system.cpu.iq.FU_type_0::FloatAdd                   0      0.00%     64.68% # Type of FU issued
system.cpu.iq.FU_type_0::FloatCmp                   1      0.00%     64.68% # Type of FU issued
system.cpu.iq.FU_type_0::FloatCvt                 833      0.01%     64.69% # Type of FU issued
system.cpu.iq.FU_type_0::FloatMult                741      0.01%     64.69% # Type of FU issued
system.cpu.iq.FU_type_0::FloatMultAcc               0      0.00%     64.69% # Type of FU issued
system.cpu.iq.FU_type_0::FloatDiv                   0      0.00%     64.69% # Type of FU issued
system.cpu.iq.FU_type_0::FloatMisc                805      0.01%     64.70% # Type of FU issued
system.cpu.iq.FU_type_0::FloatSqrt                  2      0.00%     64.70% # Type of FU issued
system.cpu.iq.FU_type_0::SimdAdd                   31      0.00%     64.70% # Type of FU issued
system.cpu.iq.FU_type_0::SimdAddAcc                 0      0.00%     64.70% # Type of FU issued
system.cpu.iq.FU_type_0::SimdAlu                   28      0.00%     64.70% # Type of FU issued
system.cpu.iq.FU_type_0::SimdCmp                   28      0.00%     64.70% # Type of FU issued
system.cpu.iq.FU_type_0::SimdCvt                    0      0.00%     64.70% # Type of FU issued
system.cpu.iq.FU_type_0::SimdMisc                 106      0.00%     64.70% # Type of FU issued
system.cpu.iq.FU_type_0::SimdMult                   0      0.00%     64.70% # Type of FU issued
system.cpu.iq.FU_type_0::SimdMultAcc                0      0.00%     64.70% # Type of FU issued
system.cpu.iq.FU_type_0::SimdShift                  0      0.00%     64.70% # Type of FU issued
system.cpu.iq.FU_type_0::SimdShiftAcc               0      0.00%     64.70% # Type of FU issued
system.cpu.iq.FU_type_0::SimdDiv                    0      0.00%     64.70% # Type of FU issued
system.cpu.iq.FU_type_0::SimdSqrt                   0      0.00%     64.70% # Type of FU issued
system.cpu.iq.FU_type_0::SimdFloatAdd               0      0.00%     64.70% # Type of FU issued
system.cpu.iq.FU_type_0::SimdFloatAlu               0      0.00%     64.70% # Type of FU issued
system.cpu.iq.FU_type_0::SimdFloatCmp               0      0.00%     64.70% # Type of FU issued
system.cpu.iq.FU_type_0::SimdFloatCvt               0      0.00%     64.70% # Type of FU issued
system.cpu.iq.FU_type_0::SimdFloatDiv               0      0.00%     64.70% # Type of FU issued
system.cpu.iq.FU_type_0::SimdFloatMisc              0      0.00%     64.70% # Type of FU issued
system.cpu.iq.FU_type_0::SimdFloatMult              0      0.00%     64.70% # Type of FU issued
system.cpu.iq.FU_type_0::SimdFloatMultAcc            0      0.00%     64.70% # Type of FU issued
system.cpu.iq.FU_type_0::SimdFloatSqrt              0      0.00%     64.70% # Type of FU issued
system.cpu.iq.FU_type_0::SimdReduceAdd              0      0.00%     64.70% # Type of FU issued
system.cpu.iq.FU_type_0::SimdReduceAlu              0      0.00%     64.70% # Type of FU issued
system.cpu.iq.FU_type_0::SimdReduceCmp              0      0.00%     64.70% # Type of FU issued
system.cpu.iq.FU_type_0::SimdFloatReduceAdd            0      0.00%     64.70% # Type of FU issued
system.cpu.iq.FU_type_0::SimdFloatReduceCmp            0      0.00%     64.70% # Type of FU issued
system.cpu.iq.FU_type_0::SimdAes                    0      0.00%     64.70% # Type of FU issued
system.cpu.iq.FU_type_0::SimdAesMix                 0      0.00%     64.70% # Type of FU issued
system.cpu.iq.FU_type_0::SimdSha1Hash               0      0.00%     64.70% # Type of FU issued
system.cpu.iq.FU_type_0::SimdSha1Hash2              0      0.00%     64.70% # Type of FU issued
system.cpu.iq.FU_type_0::SimdSha256Hash             0      0.00%     64.70% # Type of FU issued
system.cpu.iq.FU_type_0::SimdSha256Hash2            0      0.00%     64.70% # Type of FU issued
system.cpu.iq.FU_type_0::SimdShaSigma2              0      0.00%     64.70% # Type of FU issued
system.cpu.iq.FU_type_0::SimdShaSigma3              0      0.00%     64.70% # Type of FU issued
system.cpu.iq.FU_type_0::SimdPredAlu                0      0.00%     64.70% # Type of FU issued
system.cpu.iq.FU_type_0::MemRead              3167878     23.33%     88.03% # Type of FU issued
system.cpu.iq.FU_type_0::MemWrite             1625956     11.97%    100.00% # Type of FU issued
system.cpu.iq.FU_type_0::FloatMemRead               0      0.00%    100.00% # Type of FU issued
system.cpu.iq.FU_type_0::FloatMemWrite              0      0.00%    100.00% # Type of FU issued
system.cpu.iq.FU_type_0::IprAccess                  0      0.00%    100.00% # Type of FU issued
system.cpu.iq.FU_type_0::InstPrefetch               0      0.00%    100.00% # Type of FU issued
system.cpu.iq.FU_type_0::total               13581133                       # Type of FU issued
system.cpu.iq.fp_alu_accesses                       0                       # Number of floating point alu accesses
system.cpu.iq.fp_inst_queue_reads                   0                       # Number of floating instruction queue reads
system.cpu.iq.fp_inst_queue_wakeup_accesses            0                       # Number of floating instruction queue wakeup accesses
system.cpu.iq.fp_inst_queue_writes                  0                       # Number of floating instruction queue writes
system.cpu.iq.fu_busy_cnt                      183366                       # FU busy when requested
system.cpu.iq.fu_busy_rate                   0.013502                       # FU busy rate (busy events/executed inst)
system.cpu.iq.fu_full::No_OpClass                   0      0.00%      0.00% # attempts to use FU when none available
system.cpu.iq.fu_full::IntAlu                   76633     41.79%     41.79% # attempts to use FU when none available
system.cpu.iq.fu_full::IntMult                     29      0.02%     41.81% # attempts to use FU when none available
system.cpu.iq.fu_full::IntDiv                       0      0.00%     41.81% # attempts to use FU when none available
system.cpu.iq.fu_full::FloatAdd                     0      0.00%     41.81% # attempts to use FU when none available
system.cpu.iq.fu_full::FloatCmp                     0      0.00%     41.81% # attempts to use FU when none available
system.cpu.iq.fu_full::FloatCvt                     0      0.00%     41.81% # attempts to use FU when none available
system.cpu.iq.fu_full::FloatMult                    0      0.00%     41.81% # attempts to use FU when none available
system.cpu.iq.fu_full::FloatMultAcc                 0      0.00%     41.81% # attempts to use FU when none available
system.cpu.iq.fu_full::FloatDiv                     0      0.00%     41.81% # attempts to use FU when none available
system.cpu.iq.fu_full::FloatMisc                    0      0.00%     41.81% # attempts to use FU when none available
system.cpu.iq.fu_full::FloatSqrt                    0      0.00%     41.81% # attempts to use FU when none available
system.cpu.iq.fu_full::SimdAdd                      0      0.00%     41.81% # attempts to use FU when none available
system.cpu.iq.fu_full::SimdAddAcc                   0      0.00%     41.81% # attempts to use FU when none available
system.cpu.iq.fu_full::SimdAlu                      1      0.00%     41.81% # attempts to use FU when none available
system.cpu.iq.fu_full::SimdCmp                      2      0.00%     41.81% # attempts to use FU when none available
system.cpu.iq.fu_full::SimdCvt                      0      0.00%     41.81% # attempts to use FU when none available
system.cpu.iq.fu_full::SimdMisc                     0      0.00%     41.81% # attempts to use FU when none available
system.cpu.iq.fu_full::SimdMult                     0      0.00%     41.81% # attempts to use FU when none available
system.cpu.iq.fu_full::SimdMultAcc                  0      0.00%     41.81% # attempts to use FU when none available
system.cpu.iq.fu_full::SimdShift                    0      0.00%     41.81% # attempts to use FU when none available
system.cpu.iq.fu_full::SimdShiftAcc                 0      0.00%     41.81% # attempts to use FU when none available
system.cpu.iq.fu_full::SimdDiv                      0      0.00%     41.81% # attempts to use FU when none available
system.cpu.iq.fu_full::SimdSqrt                     0      0.00%     41.81% # attempts to use FU when none available
system.cpu.iq.fu_full::SimdFloatAdd                 0      0.00%     41.81% # attempts to use FU when none available
system.cpu.iq.fu_full::SimdFloatAlu                 0      0.00%     41.81% # attempts to use FU when none available
system.cpu.iq.fu_full::SimdFloatCmp                 0      0.00%     41.81% # attempts to use FU when none available
system.cpu.iq.fu_full::SimdFloatCvt                 0      0.00%     41.81% # attempts to use FU when none available
system.cpu.iq.fu_full::SimdFloatDiv                 0      0.00%     41.81% # attempts to use FU when none available
system.cpu.iq.fu_full::SimdFloatMisc                0      0.00%     41.81% # attempts to use FU when none available
system.cpu.iq.fu_full::SimdFloatMult                0      0.00%     41.81% # attempts to use FU when none available
system.cpu.iq.fu_full::SimdFloatMultAcc             0      0.00%     41.81% # attempts to use FU when none available
system.cpu.iq.fu_full::SimdFloatSqrt                0      0.00%     41.81% # attempts to use FU when none available
system.cpu.iq.fu_full::SimdReduceAdd                0      0.00%     41.81% # attempts to use FU when none available
system.cpu.iq.fu_full::SimdReduceAlu                0      0.00%     41.81% # attempts to use FU when none available
system.cpu.iq.fu_full::SimdReduceCmp                0      0.00%     41.81% # attempts to use FU when none available
system.cpu.iq.fu_full::SimdFloatReduceAdd            0      0.00%     41.81% # attempts to use FU when none available
system.cpu.iq.fu_full::SimdFloatReduceCmp            0      0.00%     41.81% # attempts to use FU when none available
system.cpu.iq.fu_full::SimdAes                      0      0.00%     41.81% # attempts to use FU when none available
system.cpu.iq.fu_full::SimdAesMix                   0      0.00%     41.81% # attempts to use FU when none available
system.cpu.iq.fu_full::SimdSha1Hash                 0      0.00%     41.81% # attempts to use FU when none available
system.cpu.iq.fu_full::SimdSha1Hash2                0      0.00%     41.81% # attempts to use FU when none available
system.cpu.iq.fu_full::SimdSha256Hash               0      0.00%     41.81% # attempts to use FU when none available
system.cpu.iq.fu_full::SimdSha256Hash2              0      0.00%     41.81% # attempts to use FU when none available
system.cpu.iq.fu_full::SimdShaSigma2                0      0.00%     41.81% # attempts to use FU when none available
system.cpu.iq.fu_full::SimdShaSigma3                0      0.00%     41.81% # attempts to use FU when none available
system.cpu.iq.fu_full::SimdPredAlu                  0      0.00%     41.81% # attempts to use FU when none available
system.cpu.iq.fu_full::MemRead                  70358     38.37%     80.18% # attempts to use FU when none available
system.cpu.iq.fu_full::MemWrite                 36343     19.82%    100.00% # attempts to use FU when none available
system.cpu.iq.fu_full::FloatMemRead                 0      0.00%    100.00% # attempts to use FU when none available
system.cpu.iq.fu_full::FloatMemWrite                0      0.00%    100.00% # attempts to use FU when none available
system.cpu.iq.fu_full::IprAccess                    0      0.00%    100.00% # attempts to use FU when none available
system.cpu.iq.fu_full::InstPrefetch                 0      0.00%    100.00% # attempts to use FU when none available
system.cpu.iq.int_alu_accesses               13759410                       # Number of integer alu accesses
system.cpu.iq.int_inst_queue_reads           35046877                       # Number of integer instruction queue reads
system.cpu.iq.int_inst_queue_wakeup_accesses     13100091                       # Number of integer instruction queue wakeup accesses
system.cpu.iq.int_inst_queue_writes          16352632                       # Number of integer instruction queue writes
system.cpu.iq.iqInstsAdded                   14162465                       # Number of instructions added to the IQ (excludes non-spec)
system.cpu.iq.iqInstsIssued                  13581133                       # Number of instructions issued
system.cpu.iq.iqNonSpecInstsAdded                 664                       # Number of non-speculative instructions added to the IQ
system.cpu.iq.iqSquashedInstsExamined         2198496                       # Number of squashed instructions iterated over during squash; mainly for profiling
system.cpu.iq.iqSquashedInstsIssued             19856                       # Number of squashed instructions issued
system.cpu.iq.iqSquashedNonSpecRemoved             89                       # Number of squashed non-spec instructions that were removed
system.cpu.iq.iqSquashedOperandsExamined      1599324                       # Number of squashed operands that are examined and possibly removed from graph
system.cpu.iq.issued_per_cycle::samples       7691315                       # Number of insts issued each cycle
system.cpu.iq.issued_per_cycle::mean         1.765775                       # Number of insts issued each cycle
system.cpu.iq.issued_per_cycle::stdev        2.065501                       # Number of insts issued each cycle
system.cpu.iq.issued_per_cycle::underflows            0      0.00%      0.00% # Number of insts issued each cycle
system.cpu.iq.issued_per_cycle::0             3274979     42.58%     42.58% # Number of insts issued each cycle
system.cpu.iq.issued_per_cycle::1             1043962     13.57%     56.15% # Number of insts issued each cycle
system.cpu.iq.issued_per_cycle::2             1005693     13.08%     69.23% # Number of insts issued each cycle
system.cpu.iq.issued_per_cycle::3              816918     10.62%     79.85% # Number of insts issued each cycle
system.cpu.iq.issued_per_cycle::4              587675      7.64%     87.49% # Number of insts issued each cycle
system.cpu.iq.issued_per_cycle::5              384078      4.99%     92.48% # Number of insts issued each cycle
system.cpu.iq.issued_per_cycle::6              340162      4.42%     96.91% # Number of insts issued each cycle
system.cpu.iq.issued_per_cycle::7              139815      1.82%     98.73% # Number of insts issued each cycle
system.cpu.iq.issued_per_cycle::8               98033      1.27%    100.00% # Number of insts issued each cycle
system.cpu.iq.issued_per_cycle::overflows            0      0.00%    100.00% # Number of insts issued each cycle
system.cpu.iq.issued_per_cycle::min_value            0                       # Number of insts issued each cycle
system.cpu.iq.issued_per_cycle::max_value            8                       # Number of insts issued each cycle
system.cpu.iq.issued_per_cycle::total         7691315                       # Number of insts issued each cycle
system.cpu.iq.rate                           1.654229                       # Inst issue rate
system.cpu.iq.vec_alu_accesses                   4972                       # Number of vector alu accesses
system.cpu.iq.vec_inst_queue_reads               9921                       # Number of vector instruction queue reads
system.cpu.iq.vec_inst_queue_wakeup_accesses         4378                       # Number of vector instruction queue wakeup accesses
system.cpu.iq.vec_inst_queue_writes             10135                       # Number of vector instruction queue writes
system.cpu.itb.accesses                             0                       # DTB accesses
system.cpu.itb.align_faults                         0                       # Number of TLB faults due to alignment restrictions
system.cpu.itb.domain_faults                        0                       # Number of TLB faults due to domain restrictions
system.cpu.itb.flush_entries                        0                       # Number of entries that have been flushed from TLB
system.cpu.itb.flush_tlb                            0                       # Number of times complete TLB was flushed
system.cpu.itb.flush_tlb_asid                       0                       # Number of times TLB was flushed by ASID
system.cpu.itb.flush_tlb_mva                        0                       # Number of times TLB was flushed by MVA
system.cpu.itb.flush_tlb_mva_asid                   0                       # Number of times TLB was flushed by MVA & ASID
system.cpu.itb.hits                                 0                       # DTB hits
system.cpu.itb.inst_accesses                        0                       # ITB inst accesses
system.cpu.itb.inst_hits                            0                       # ITB inst hits
system.cpu.itb.inst_misses                          0                       # ITB inst misses
system.cpu.itb.misses                               0                       # DTB misses
system.cpu.itb.perms_faults                         0                       # Number of TLB faults due to permissions restrictions
system.cpu.itb.prefetch_faults                      0                       # Number of TLB faults due to prefetch
system.cpu.itb.read_accesses                        0                       # DTB read accesses
system.cpu.itb.read_hits                            0                       # DTB read hits
system.cpu.itb.read_misses                          0                       # DTB read misses
system.cpu.itb.stage2_mmu.stage2_tlb.accesses            0                       # DTB accesses
system.cpu.itb.stage2_mmu.stage2_tlb.align_faults            0                       # Number of TLB faults due to alignment restrictions
system.cpu.itb.stage2_mmu.stage2_tlb.domain_faults            0                       # Number of TLB faults due to domain restrictions
system.cpu.itb.stage2_mmu.stage2_tlb.flush_entries            0                       # Number of entries that have been flushed from TLB
system.cpu.itb.stage2_mmu.stage2_tlb.flush_tlb            0                       # Number of times complete TLB was flushed
system.cpu.itb.stage2_mmu.stage2_tlb.flush_tlb_asid            0                       # Number of times TLB was flushed by ASID
system.cpu.itb.stage2_mmu.stage2_tlb.flush_tlb_mva            0                       # Number of times TLB was flushed by MVA
system.cpu.itb.stage2_mmu.stage2_tlb.flush_tlb_mva_asid            0                       # Number of times TLB was flushed by MVA & ASID
system.cpu.itb.stage2_mmu.stage2_tlb.hits            0                       # DTB hits
system.cpu.itb.stage2_mmu.stage2_tlb.inst_accesses            0                       # ITB inst accesses
system.cpu.itb.stage2_mmu.stage2_tlb.inst_hits            0                       # ITB inst hits
system.cpu.itb.stage2_mmu.stage2_tlb.inst_misses            0                       # ITB inst misses
system.cpu.itb.stage2_mmu.stage2_tlb.misses            0                       # DTB misses
system.cpu.itb.stage2_mmu.stage2_tlb.perms_faults            0                       # Number of TLB faults due to permissions restrictions
system.cpu.itb.stage2_mmu.stage2_tlb.prefetch_faults            0                       # Number of TLB faults due to prefetch
system.cpu.itb.stage2_mmu.stage2_tlb.read_accesses            0                       # DTB read accesses
system.cpu.itb.stage2_mmu.stage2_tlb.read_hits            0                       # DTB read hits
system.cpu.itb.stage2_mmu.stage2_tlb.read_misses            0                       # DTB read misses
system.cpu.itb.stage2_mmu.stage2_tlb.walker.walkRequestOrigin_Requested::Data            0                       # Table walker requests started/completed, data/inst
system.cpu.itb.stage2_mmu.stage2_tlb.walker.walkRequestOrigin_Requested::Inst            0                       # Table walker requests started/completed, data/inst
system.cpu.itb.stage2_mmu.stage2_tlb.walker.walkRequestOrigin_Requested::total            0                       # Table walker requests started/completed, data/inst
system.cpu.itb.stage2_mmu.stage2_tlb.walker.walkRequestOrigin_Completed::Data            0                       # Table walker requests started/completed, data/inst
system.cpu.itb.stage2_mmu.stage2_tlb.walker.walkRequestOrigin_Completed::Inst            0                       # Table walker requests started/completed, data/inst
system.cpu.itb.stage2_mmu.stage2_tlb.walker.walkRequestOrigin_Completed::total            0                       # Table walker requests started/completed, data/inst
system.cpu.itb.stage2_mmu.stage2_tlb.walker.walkRequestOrigin::total            0                       # Table walker requests started/completed, data/inst
system.cpu.itb.stage2_mmu.stage2_tlb.walker.walks            0                       # Table walker walks requested
system.cpu.itb.stage2_mmu.stage2_tlb.write_accesses            0                       # DTB write accesses
system.cpu.itb.stage2_mmu.stage2_tlb.write_hits            0                       # DTB write hits
system.cpu.itb.stage2_mmu.stage2_tlb.write_misses            0                       # DTB write misses
system.cpu.itb.walker.walkRequestOrigin_Requested::Data            0                       # Table walker requests started/completed, data/inst
system.cpu.itb.walker.walkRequestOrigin_Requested::Inst            0                       # Table walker requests started/completed, data/inst
system.cpu.itb.walker.walkRequestOrigin_Requested::total            0                       # Table walker requests started/completed, data/inst
system.cpu.itb.walker.walkRequestOrigin_Completed::Data            0                       # Table walker requests started/completed, data/inst
system.cpu.itb.walker.walkRequestOrigin_Completed::Inst            0                       # Table walker requests started/completed, data/inst
system.cpu.itb.walker.walkRequestOrigin_Completed::total            0                       # Table walker requests started/completed, data/inst
system.cpu.itb.walker.walkRequestOrigin::total            0                       # Table walker requests started/completed, data/inst
system.cpu.itb.walker.walks                         0                       # Table walker walks requested
system.cpu.itb.write_accesses                       0                       # DTB write accesses
system.cpu.itb.write_hits                           0                       # DTB write hits
system.cpu.itb.write_misses                         0                       # DTB write misses
system.cpu.memDep0.conflictingLoads             82539                       # Number of conflicting loads.
system.cpu.memDep0.conflictingStores           126985                       # Number of conflicting stores.
system.cpu.memDep0.insertedLoads              3142311                       # Number of loads inserted to the mem dependence unit.
system.cpu.memDep0.insertedStores             1699389                       # Number of stores inserted to the mem dependence unit.
system.cpu.misc_regfile_reads                10148773                       # number of misc regfile reads
system.cpu.misc_regfile_writes                   2315                       # number of misc regfile writes
system.cpu.numCycles                          8209949                       # number of cpu cycles simulated
system.cpu.numWorkItemsCompleted                    0                       # number of work items this cpu completed
system.cpu.numWorkItemsStarted                      0                       # number of work items this cpu started
system.cpu.rename.BlockCycles                  505179                       # Number of cycles rename is blocking
system.cpu.rename.CommittedMaps              11774593                       # Number of HB maps that are committed
system.cpu.rename.IQFullEvents                 151053                       # Number of times rename has blocked due to IQ full
system.cpu.rename.IdleCycles                  3266755                       # Number of cycles rename is idle
system.cpu.rename.LQFullEvents                 125483                       # Number of times rename has blocked due to LQ full
system.cpu.rename.ROBFullEvents                  2325                       # Number of times rename has blocked due to ROB full
system.cpu.rename.RenameLookups              21623725                       # Number of register rename lookups that rename has made
system.cpu.rename.RenamedInsts               14702850                       # Number of instructions processed by rename
system.cpu.rename.RenamedOperands            14449171                       # Number of destination operands rename has renamed
system.cpu.rename.RunCycles                   2870063                       # Number of cycles rename is running
system.cpu.rename.SQFullEvents                 265556                       # Number of times rename has blocked due to SQ full
system.cpu.rename.SquashCycles                 100662                       # Number of cycles rename is squashing
system.cpu.rename.UnblockCycles                573811                       # Number of cycles rename is unblocking
system.cpu.rename.UndoneMaps                  2674543                       # Number of HB maps that are undone due to squashing
system.cpu.rename.int_rename_lookups         17815294                       # Number of integer rename lookups
system.cpu.rename.serializeStallCycles         374845                       # count of cycles rename stalled for serializing inst
system.cpu.rename.serializingInsts              15718                       # count of serializing insts renamed
system.cpu.rename.skidInsts                    606041                       # count of insts added to the skid buffer
system.cpu.rename.tempSerializingInsts            689                       # count of temporary serializing insts renamed
system.cpu.rename.vec_rename_lookups             5419                       # Number of vector rename lookups
system.cpu.rob.rob_reads                     20926839                       # The number of ROB reads
system.cpu.rob.rob_writes                    28708431                       # The number of ROB writes
system.cpu.timesIdled                           40319                       # Number of times that the entire CPU went into an idle state and unscheduled itself
system.cpu.vec_regfile_reads                     3429                       # number of vector regfile reads
system.cpu.vec_regfile_writes                    2455                       # number of vector regfile writes
system.cpu.workload.numSyscalls                    24                       # Number of system calls
system.membus.snoop_filter.hit_multi_requests            0                       # Number of requests hitting in the snoop filter with multiple (>1) holders of the requested data.
system.membus.snoop_filter.hit_multi_snoops            0                       # Number of snoops hitting in the snoop filter with multiple (>1) holders of the requested data.
system.membus.snoop_filter.hit_single_requests            0                       # Number of requests hitting in the snoop filter with a single holder of the requested data.
system.membus.snoop_filter.hit_single_snoops            0                       # Number of snoops hitting in the snoop filter with a single holder of the requested data.
system.membus.snoop_filter.tot_requests         17777                       # Total number of requests made to the snoop filter.
system.membus.snoop_filter.tot_snoops               0                       # Total number of snoops made to the snoop filter.
system.tol2bus.snoop_filter.hit_multi_requests          214                       # Number of requests hitting in the snoop filter with multiple (>1) holders of the requested data.
system.tol2bus.snoop_filter.hit_multi_snoops            0                       # Number of snoops hitting in the snoop filter with multiple (>1) holders of the requested data.
system.tol2bus.snoop_filter.hit_single_requests       104914                       # Number of requests hitting in the snoop filter with a single holder of the requested data.
system.tol2bus.snoop_filter.hit_single_snoops            0                       # Number of snoops hitting in the snoop filter with a single holder of the requested data.
system.tol2bus.snoop_filter.tot_requests       211865                       # Total number of requests made to the snoop filter.
system.tol2bus.snoop_filter.tot_snoops              0                       # Total number of snoops made to the snoop filter.
system.membus.trans_dist::ReadResp               6861                       # Transaction distribution
system.membus.trans_dist::ReadExReq             10638                       # Transaction distribution
system.membus.trans_dist::ReadExResp            10638                       # Transaction distribution
system.membus.trans_dist::ReadSharedReq          6861                       # Transaction distribution
system.membus.trans_dist::InvalidateReq           278                       # Transaction distribution
system.membus.pkt_count_system.l2.mem_side::system.mem_ctrls.port        35276                       # Packet count per connected master and slave (bytes)
system.membus.pkt_count::total                  35276                       # Packet count per connected master and slave (bytes)
system.membus.pkt_size_system.l2.mem_side::system.mem_ctrls.port      1119936                       # Cumulative packet size per connected master and slave (bytes)
system.membus.pkt_size::total                 1119936                       # Cumulative packet size per connected master and slave (bytes)
system.membus.snoops                                0                       # Total snoops (count)
system.membus.snoopTraffic                          0                       # Total snoop traffic (bytes)
system.membus.snoop_fanout::samples             17777                       # Request fanout histogram
system.membus.snoop_fanout::mean                    0                       # Request fanout histogram
system.membus.snoop_fanout::stdev                   0                       # Request fanout histogram
system.membus.snoop_fanout::underflows              0      0.00%      0.00% # Request fanout histogram
system.membus.snoop_fanout::0                   17777    100.00%    100.00% # Request fanout histogram
system.membus.snoop_fanout::1                       0      0.00%    100.00% # Request fanout histogram
system.membus.snoop_fanout::overflows               0      0.00%    100.00% # Request fanout histogram
system.membus.snoop_fanout::min_value               0                       # Request fanout histogram
system.membus.snoop_fanout::max_value               0                       # Request fanout histogram
system.membus.snoop_fanout::total               17777                       # Request fanout histogram
system.membus.reqLayer0.occupancy            22319000                       # Layer occupancy (ticks)
system.membus.reqLayer0.utilization               0.5                       # Layer utilization (%)
system.membus.respLayer1.occupancy           92404500                       # Layer occupancy (ticks)
system.membus.respLayer1.utilization              2.3                       # Layer utilization (%)
system.membus.power_state.pwrStateResidencyTicks::UNDEFINED   4104966000                       # Cumulative time (in ticks) in various power states
system.tol2bus.trans_dist::ReadResp             92975                       # Transaction distribution
system.tol2bus.trans_dist::WritebackDirty        29754                       # Transaction distribution
system.tol2bus.trans_dist::WritebackClean        71008                       # Transaction distribution
system.tol2bus.trans_dist::CleanEvict            4144                       # Transaction distribution
system.tol2bus.trans_dist::UpgradeReq               4                       # Transaction distribution
system.tol2bus.trans_dist::UpgradeResp              4                       # Transaction distribution
system.tol2bus.trans_dist::ReadExReq            13678                       # Transaction distribution
system.tol2bus.trans_dist::ReadExResp           13678                       # Transaction distribution
system.tol2bus.trans_dist::ReadCleanReq         72033                       # Transaction distribution
system.tol2bus.trans_dist::ReadSharedReq        20942                       # Transaction distribution
system.tol2bus.trans_dist::InvalidateReq          302                       # Transaction distribution
system.tol2bus.trans_dist::InvalidateResp          302                       # Transaction distribution
system.tol2bus.pkt_count_system.cpu.icache.mem_side::system.l2.cpu_side       215049                       # Packet count per connected master and slave (bytes)
system.tol2bus.pkt_count_system.cpu.dcache.mem_side::system.l2.cpu_side       103750                       # Packet count per connected master and slave (bytes)
system.tol2bus.pkt_count::total                318799                       # Packet count per connected master and slave (bytes)
system.tol2bus.pkt_size_system.cpu.icache.mem_side::system.l2.cpu_side      9153024                       # Cumulative packet size per connected master and slave (bytes)
system.tol2bus.pkt_size_system.cpu.dcache.mem_side::system.l2.cpu_side      4119936                       # Cumulative packet size per connected master and slave (bytes)
system.tol2bus.pkt_size::total               13272960                       # Cumulative packet size per connected master and slave (bytes)
system.tol2bus.snoops                              25                       # Total snoops (count)
system.tol2bus.snoopTraffic                      1600                       # Total snoop traffic (bytes)
system.tol2bus.snoop_fanout::samples           106959                       # Request fanout histogram
system.tol2bus.snoop_fanout::mean            0.002076                       # Request fanout histogram
system.tol2bus.snoop_fanout::stdev           0.045511                       # Request fanout histogram
system.tol2bus.snoop_fanout::underflows             0      0.00%      0.00% # Request fanout histogram
system.tol2bus.snoop_fanout::0                 106737     99.79%     99.79% # Request fanout histogram
system.tol2bus.snoop_fanout::1                    222      0.21%    100.00% # Request fanout histogram
system.tol2bus.snoop_fanout::2                      0      0.00%    100.00% # Request fanout histogram
system.tol2bus.snoop_fanout::overflows              0      0.00%    100.00% # Request fanout histogram
system.tol2bus.snoop_fanout::min_value              0                       # Request fanout histogram
system.tol2bus.snoop_fanout::max_value              1                       # Request fanout histogram
system.tol2bus.snoop_fanout::total             106959                       # Request fanout histogram
system.tol2bus.reqLayer0.occupancy          206694500                       # Layer occupancy (ticks)
system.tol2bus.reqLayer0.utilization              5.0                       # Layer utilization (%)
system.tol2bus.respLayer1.occupancy          52115934                       # Layer occupancy (ticks)
system.tol2bus.respLayer1.utilization             1.3                       # Layer utilization (%)
system.tol2bus.respLayer0.occupancy         108065468                       # Layer occupancy (ticks)
system.tol2bus.respLayer0.utilization             2.6                       # Layer utilization (%)
system.tol2bus.power_state.pwrStateResidencyTicks::UNDEFINED   4104966000                       # Cumulative time (in ticks) in various power states
system.voltage_domain.voltage                       1                       # Voltage in Volts
system.clk_domain.clock                          1000                       # Clock period in ticks
system.l2.demand_hits::.cpu.inst                66566                       # number of demand (read+write) hits
system.l2.demand_hits::.cpu.data                22562                       # number of demand (read+write) hits
system.l2.demand_hits::total                    89128                       # number of demand (read+write) hits
system.l2.overall_hits::.cpu.inst               66566                       # number of overall hits
system.l2.overall_hits::.cpu.data               22562                       # number of overall hits
system.l2.overall_hits::total                   89128                       # number of overall hits
system.l2.demand_misses::.cpu.inst               5442                       # number of demand (read+write) misses
system.l2.demand_misses::.cpu.data              12058                       # number of demand (read+write) misses
system.l2.demand_misses::total                  17500                       # number of demand (read+write) misses
system.l2.overall_misses::.cpu.inst              5442                       # number of overall misses
system.l2.overall_misses::.cpu.data             12058                       # number of overall misses
system.l2.overall_misses::total                 17500                       # number of overall misses
system.l2.demand_miss_latency::.cpu.inst    429919500                       # number of demand (read+write) miss cycles
system.l2.demand_miss_latency::.cpu.data    933897500                       # number of demand (read+write) miss cycles
system.l2.demand_miss_latency::total       1363817000                       # number of demand (read+write) miss cycles
system.l2.overall_miss_latency::.cpu.inst    429919500                       # number of overall miss cycles
system.l2.overall_miss_latency::.cpu.data    933897500                       # number of overall miss cycles
system.l2.overall_miss_latency::total      1363817000                       # number of overall miss cycles
system.l2.demand_accesses::.cpu.inst            72008                       # number of demand (read+write) accesses
system.l2.demand_accesses::.cpu.data            34620                       # number of demand (read+write) accesses
system.l2.demand_accesses::total               106628                       # number of demand (read+write) accesses
system.l2.overall_accesses::.cpu.inst           72008                       # number of overall (read+write) accesses
system.l2.overall_accesses::.cpu.data           34620                       # number of overall (read+write) accesses
system.l2.overall_accesses::total              106628                       # number of overall (read+write) accesses
system.l2.demand_miss_rate::.cpu.inst        0.075575                       # miss rate for demand accesses
system.l2.demand_miss_rate::.cpu.data        0.348296                       # miss rate for demand accesses
system.l2.demand_miss_rate::total            0.164122                       # miss rate for demand accesses
system.l2.overall_miss_rate::.cpu.inst       0.075575                       # miss rate for overall accesses
system.l2.overall_miss_rate::.cpu.data       0.348296                       # miss rate for overall accesses
system.l2.overall_miss_rate::total           0.164122                       # miss rate for overall accesses
system.l2.demand_avg_miss_latency::.cpu.inst 79000.275634                       # average overall miss latency
system.l2.demand_avg_miss_latency::.cpu.data 77450.447835                       # average overall miss latency
system.l2.demand_avg_miss_latency::total 77932.400000                       # average overall miss latency
system.l2.overall_avg_miss_latency::.cpu.inst 79000.275634                       # average overall miss latency
system.l2.overall_avg_miss_latency::.cpu.data 77450.447835                       # average overall miss latency
system.l2.overall_avg_miss_latency::total 77932.400000                       # average overall miss latency
system.l2.blocked_cycles::no_mshrs                  0                       # number of cycles access was blocked
system.l2.blocked_cycles::no_targets                0                       # number of cycles access was blocked
system.l2.blocked::no_mshrs                         0                       # number of cycles access was blocked
system.l2.blocked::no_targets                       0                       # number of cycles access was blocked
system.l2.avg_blocked_cycles::no_mshrs            nan                       # average number of cycles each access was blocked
system.l2.avg_blocked_cycles::no_targets          nan                       # average number of cycles each access was blocked
system.l2.demand_mshr_hits::.cpu.inst               1                       # number of demand (read+write) MSHR hits
system.l2.demand_mshr_hits::total                   1                       # number of demand (read+write) MSHR hits
system.l2.overall_mshr_hits::.cpu.inst              1                       # number of overall MSHR hits
system.l2.overall_mshr_hits::total                  1                       # number of overall MSHR hits
system.l2.demand_mshr_misses::.cpu.inst          5441                       # number of demand (read+write) MSHR misses
system.l2.demand_mshr_misses::.cpu.data         12058                       # number of demand (read+write) MSHR misses
system.l2.demand_mshr_misses::total             17499                       # number of demand (read+write) MSHR misses
system.l2.overall_mshr_misses::.cpu.inst         5441                       # number of overall MSHR misses
system.l2.overall_mshr_misses::.cpu.data        12058                       # number of overall MSHR misses
system.l2.overall_mshr_misses::total            17499                       # number of overall MSHR misses
system.l2.demand_mshr_miss_latency::.cpu.inst    375413500                       # number of demand (read+write) MSHR miss cycles
system.l2.demand_mshr_miss_latency::.cpu.data    813317500                       # number of demand (read+write) MSHR miss cycles
system.l2.demand_mshr_miss_latency::total   1188731000                       # number of demand (read+write) MSHR miss cycles
system.l2.overall_mshr_miss_latency::.cpu.inst    375413500                       # number of overall MSHR miss cycles
system.l2.overall_mshr_miss_latency::.cpu.data    813317500                       # number of overall MSHR miss cycles
system.l2.overall_mshr_miss_latency::total   1188731000                       # number of overall MSHR miss cycles
system.l2.demand_mshr_miss_rate::.cpu.inst     0.075561                       # mshr miss rate for demand accesses
system.l2.demand_mshr_miss_rate::.cpu.data     0.348296                       # mshr miss rate for demand accesses
system.l2.demand_mshr_miss_rate::total       0.164113                       # mshr miss rate for demand accesses
system.l2.overall_mshr_miss_rate::.cpu.inst     0.075561                       # mshr miss rate for overall accesses
system.l2.overall_mshr_miss_rate::.cpu.data     0.348296                       # mshr miss rate for overall accesses
system.l2.overall_mshr_miss_rate::total      0.164113                       # mshr miss rate for overall accesses
system.l2.demand_avg_mshr_miss_latency::.cpu.inst 68997.151259                       # average overall mshr miss latency
system.l2.demand_avg_mshr_miss_latency::.cpu.data 67450.447835                       # average overall mshr miss latency
system.l2.demand_avg_mshr_miss_latency::total 67931.367507                       # average overall mshr miss latency
system.l2.overall_avg_mshr_miss_latency::.cpu.inst 68997.151259                       # average overall mshr miss latency
system.l2.overall_avg_mshr_miss_latency::.cpu.data 67450.447835                       # average overall mshr miss latency
system.l2.overall_avg_mshr_miss_latency::total 67931.367507                       # average overall mshr miss latency
system.l2.replacements                              0                       # number of replacements
system.l2.WritebackDirty_hits::.writebacks        29754                       # number of WritebackDirty hits
system.l2.WritebackDirty_hits::total            29754                       # number of WritebackDirty hits
system.l2.WritebackDirty_accesses::.writebacks        29754                       # number of WritebackDirty accesses(hits+misses)
system.l2.WritebackDirty_accesses::total        29754                       # number of WritebackDirty accesses(hits+misses)
system.l2.WritebackClean_hits::.writebacks        70880                       # number of WritebackClean hits
system.l2.WritebackClean_hits::total            70880                       # number of WritebackClean hits
system.l2.WritebackClean_accesses::.writebacks        70880                       # number of WritebackClean accesses(hits+misses)
system.l2.WritebackClean_accesses::total        70880                       # number of WritebackClean accesses(hits+misses)
system.l2.UpgradeReq_hits::.cpu.data                4                       # number of UpgradeReq hits
system.l2.UpgradeReq_hits::total                    4                       # number of UpgradeReq hits
system.l2.UpgradeReq_accesses::.cpu.data            4                       # number of UpgradeReq accesses(hits+misses)
system.l2.UpgradeReq_accesses::total                4                       # number of UpgradeReq accesses(hits+misses)
system.l2.ReadExReq_hits::.cpu.data              3040                       # number of ReadExReq hits
system.l2.ReadExReq_hits::total                  3040                       # number of ReadExReq hits
system.l2.ReadExReq_misses::.cpu.data           10638                       # number of ReadExReq misses
system.l2.ReadExReq_misses::total               10638                       # number of ReadExReq misses
system.l2.ReadExReq_miss_latency::.cpu.data    818213500                       # number of ReadExReq miss cycles
system.l2.ReadExReq_miss_latency::total     818213500                       # number of ReadExReq miss cycles
system.l2.ReadExReq_accesses::.cpu.data         13678                       # number of ReadExReq accesses(hits+misses)
system.l2.ReadExReq_accesses::total             13678                       # number of ReadExReq accesses(hits+misses)
system.l2.ReadExReq_miss_rate::.cpu.data     0.777745                       # miss rate for ReadExReq accesses
system.l2.ReadExReq_miss_rate::total         0.777745                       # miss rate for ReadExReq accesses
system.l2.ReadExReq_avg_miss_latency::.cpu.data 76914.222598                       # average ReadExReq miss latency
system.l2.ReadExReq_avg_miss_latency::total 76914.222598                       # average ReadExReq miss latency
system.l2.ReadExReq_mshr_misses::.cpu.data        10638                       # number of ReadExReq MSHR misses
system.l2.ReadExReq_mshr_misses::total          10638                       # number of ReadExReq MSHR misses
system.l2.ReadExReq_mshr_miss_latency::.cpu.data    711833500                       # number of ReadExReq MSHR miss cycles
system.l2.ReadExReq_mshr_miss_latency::total    711833500                       # number of ReadExReq MSHR miss cycles
system.l2.ReadExReq_mshr_miss_rate::.cpu.data     0.777745                       # mshr miss rate for ReadExReq accesses
system.l2.ReadExReq_mshr_miss_rate::total     0.777745                       # mshr miss rate for ReadExReq accesses
system.l2.ReadExReq_avg_mshr_miss_latency::.cpu.data 66914.222598                       # average ReadExReq mshr miss latency
system.l2.ReadExReq_avg_mshr_miss_latency::total 66914.222598                       # average ReadExReq mshr miss latency
system.l2.ReadCleanReq_hits::.cpu.inst          66566                       # number of ReadCleanReq hits
system.l2.ReadCleanReq_hits::total              66566                       # number of ReadCleanReq hits
system.l2.ReadCleanReq_misses::.cpu.inst         5442                       # number of ReadCleanReq misses
system.l2.ReadCleanReq_misses::total             5442                       # number of ReadCleanReq misses
system.l2.ReadCleanReq_miss_latency::.cpu.inst    429919500                       # number of ReadCleanReq miss cycles
[...]
system.cpu.dcache.demand_accesses::total      4387047                       # number of demand (read+write) accesses
system.cpu.dcache.overall_accesses::.cpu.data      4393389                       # number of overall (read+write) accesses
system.cpu.dcache.overall_accesses::total      4393389                       # number of overall (read+write) accesses
system.cpu.dcache.demand_miss_rate::.cpu.data     0.035470                       # miss rate for demand accesses
system.cpu.dcache.demand_miss_rate::total     0.035470                       # miss rate for demand accesses
system.cpu.dcache.overall_miss_rate::.cpu.data     0.035423                       # miss rate for overall accesses
system.cpu.dcache.overall_miss_rate::total     0.035423                       # miss rate for overall accesses
system.cpu.dcache.demand_avg_miss_latency::.cpu.data 43114.979757                       # average overall miss latency
system.cpu.dcache.demand_avg_miss_latency::total 43114.979757                       # average overall miss latency
system.cpu.dcache.overall_avg_miss_latency::.cpu.data 43110.270069                       # average overall miss latency
system.cpu.dcache.overall_avg_miss_latency::total 43110.270069                       # average overall miss latency
system.cpu.dcache.blocked_cycles::no_mshrs            0                       # number of cycles access was blocked
system.cpu.dcache.blocked_cycles::no_targets         7255                       # number of cycles access was blocked
system.cpu.dcache.blocked::no_mshrs                 0                       # number of cycles access was blocked
system.cpu.dcache.blocked::no_targets             133                       # number of cycles access was blocked
system.cpu.dcache.avg_blocked_cycles::no_mshrs          nan                       # average number of cycles each access was blocked
system.cpu.dcache.avg_blocked_cycles::no_targets    54.548872                       # average number of cycles each access was blocked
system.cpu.dcache.writebacks::.writebacks        29754                       # number of writebacks
system.cpu.dcache.writebacks::total             29754                       # number of writebacks
system.cpu.dcache.demand_mshr_hits::.cpu.data       120694                       # number of demand (read+write) MSHR hits
system.cpu.dcache.demand_mshr_hits::total       120694                       # number of demand (read+write) MSHR hits
system.cpu.dcache.overall_mshr_hits::.cpu.data       120694                       # number of overall MSHR hits
system.cpu.dcache.overall_mshr_hits::total       120694                       # number of overall MSHR hits
system.cpu.dcache.demand_mshr_misses::.cpu.data        34916                       # number of demand (read+write) MSHR misses
system.cpu.dcache.demand_mshr_misses::total        34916                       # number of demand (read+write) MSHR misses
system.cpu.dcache.overall_mshr_misses::.cpu.data        34924                       # number of overall MSHR misses
system.cpu.dcache.overall_mshr_misses::total        34924                       # number of overall MSHR misses
system.cpu.dcache.demand_mshr_miss_latency::.cpu.data   1233976000                       # number of demand (read+write) MSHR miss cycles
system.cpu.dcache.demand_mshr_miss_latency::total   1233976000                       # number of demand (read+write) MSHR miss cycles
system.cpu.dcache.overall_mshr_miss_latency::.cpu.data   1234306000                       # number of overall MSHR miss cycles
system.cpu.dcache.overall_mshr_miss_latency::total   1234306000                       # number of overall MSHR miss cycles
system.cpu.dcache.demand_mshr_miss_rate::.cpu.data     0.007959                       # mshr miss rate for demand accesses
system.cpu.dcache.demand_mshr_miss_rate::total     0.007959                       # mshr miss rate for demand accesses
system.cpu.dcache.overall_mshr_miss_rate::.cpu.data     0.007949                       # mshr miss rate for overall accesses
system.cpu.dcache.overall_mshr_miss_rate::total     0.007949                       # mshr miss rate for overall accesses
system.cpu.dcache.demand_avg_mshr_miss_latency::.cpu.data 35341.276206                       # average overall mshr miss latency
system.cpu.dcache.demand_avg_mshr_miss_latency::total 35341.276206                       # average overall mshr miss latency
system.cpu.dcache.overall_avg_mshr_miss_latency::.cpu.data 35342.629710                       # average overall mshr miss latency
system.cpu.dcache.overall_avg_mshr_miss_latency::total 35342.629710                       # average overall mshr miss latency
system.cpu.dcache.replacements                  33898                       # number of replacements
system.cpu.dcache.ReadReq_hits::.cpu.data      2810102                       # number of ReadReq hits
system.cpu.dcache.ReadReq_hits::total         2810102                       # number of ReadReq hits
system.cpu.dcache.ReadReq_misses::.cpu.data        65067                       # number of ReadReq misses
system.cpu.dcache.ReadReq_misses::total         65067                       # number of ReadReq misses
system.cpu.dcache.ReadReq_miss_latency::.cpu.data   1578980000                       # number of ReadReq miss cycles
system.cpu.dcache.ReadReq_miss_latency::total   1578980000                       # number of ReadReq miss cycles
system.cpu.dcache.ReadReq_accesses::.cpu.data      2875169                       # number of ReadReq accesses(hits+misses)
system.cpu.dcache.ReadReq_accesses::total      2875169                       # number of ReadReq accesses(hits+misses)
system.cpu.dcache.ReadReq_miss_rate::.cpu.data     0.022631                       # miss rate for ReadReq accesses
system.cpu.dcache.ReadReq_miss_rate::total     0.022631                       # miss rate for ReadReq accesses
system.cpu.dcache.ReadReq_avg_miss_latency::.cpu.data 24266.986337                       # average ReadReq miss latency
system.cpu.dcache.ReadReq_avg_miss_latency::total 24266.986337                       # average ReadReq miss latency
system.cpu.dcache.ReadReq_mshr_hits::.cpu.data        44133                       # number of ReadReq MSHR hits
system.cpu.dcache.ReadReq_mshr_hits::total        44133                       # number of ReadReq MSHR hits
system.cpu.dcache.ReadReq_mshr_misses::.cpu.data        20934                       # number of ReadReq MSHR misses
system.cpu.dcache.ReadReq_mshr_misses::total        20934                       # number of ReadReq MSHR misses
system.cpu.dcache.ReadReq_mshr_miss_latency::.cpu.data    353687500                       # number of ReadReq MSHR miss cycles
system.cpu.dcache.ReadReq_mshr_miss_latency::total    353687500                       # number of ReadReq MSHR miss cycles
system.cpu.dcache.ReadReq_mshr_miss_rate::.cpu.data     0.007281                       # mshr miss rate for ReadReq accesses
system.cpu.dcache.ReadReq_mshr_miss_rate::total     0.007281                       # mshr miss rate for ReadReq accesses
system.cpu.dcache.ReadReq_avg_mshr_miss_latency::.cpu.data 16895.361613                       # average ReadReq mshr miss latency
system.cpu.dcache.ReadReq_avg_mshr_miss_latency::total 16895.361613                       # average ReadReq mshr miss latency
system.cpu.dcache.WriteReq_hits::.cpu.data      1421332                       # number of WriteReq hits
system.cpu.dcache.WriteReq_hits::total        1421332                       # number of WriteReq hits
system.cpu.dcache.WriteReq_misses::.cpu.data        90338                       # number of WriteReq misses
system.cpu.dcache.WriteReq_misses::total        90338                       # number of WriteReq misses
system.cpu.dcache.WriteReq_miss_latency::.cpu.data   5123530000                       # number of WriteReq miss cycles
system.cpu.dcache.WriteReq_miss_latency::total   5123530000                       # number of WriteReq miss cycles
system.cpu.dcache.WriteReq_accesses::.cpu.data      1511670                       # number of WriteReq accesses(hits+misses)
system.cpu.dcache.WriteReq_accesses::total      1511670                       # number of WriteReq accesses(hits+misses)
system.cpu.dcache.WriteReq_miss_rate::.cpu.data     0.059760                       # miss rate for WriteReq accesses
system.cpu.dcache.WriteReq_miss_rate::total     0.059760                       # miss rate for WriteReq accesses
system.cpu.dcache.WriteReq_avg_miss_latency::.cpu.data 56715.114348                       # average WriteReq miss latency
system.cpu.dcache.WriteReq_avg_miss_latency::total 56715.114348                       # average WriteReq miss latency
system.cpu.dcache.WriteReq_mshr_hits::.cpu.data        76561                       # number of WriteReq MSHR hits
system.cpu.dcache.WriteReq_mshr_hits::total        76561                       # number of WriteReq MSHR hits
system.cpu.dcache.WriteReq_mshr_misses::.cpu.data        13777                       # number of WriteReq MSHR misses
system.cpu.dcache.WriteReq_mshr_misses::total        13777                       # number of WriteReq MSHR misses
system.cpu.dcache.WriteReq_mshr_miss_latency::.cpu.data    873881500                       # number of WriteReq MSHR miss cycles
system.cpu.dcache.WriteReq_mshr_miss_latency::total    873881500                       # number of WriteReq MSHR miss cycles
system.cpu.dcache.WriteReq_mshr_miss_rate::.cpu.data     0.009114                       # mshr miss rate for WriteReq accesses
system.cpu.dcache.WriteReq_mshr_miss_rate::total     0.009114                       # mshr miss rate for WriteReq accesses
system.cpu.dcache.WriteReq_avg_mshr_miss_latency::.cpu.data 63430.463817                       # average WriteReq mshr miss latency
system.cpu.dcache.WriteReq_avg_mshr_miss_latency::total 63430.463817                       # average WriteReq mshr miss latency
system.cpu.dcache.SoftPFReq_hits::.cpu.data         6325                       # number of SoftPFReq hits
system.cpu.dcache.SoftPFReq_hits::total          6325                       # number of SoftPFReq hits
system.cpu.dcache.SoftPFReq_misses::.cpu.data           17                       # number of SoftPFReq misses
system.cpu.dcache.SoftPFReq_misses::total           17                       # number of SoftPFReq misses
system.cpu.dcache.SoftPFReq_accesses::.cpu.data         6342                       # number of SoftPFReq accesses(hits+misses)
system.cpu.dcache.SoftPFReq_accesses::total         6342                       # number of SoftPFReq accesses(hits+misses)
system.cpu.dcache.SoftPFReq_miss_rate::.cpu.data     0.002681                       # miss rate for SoftPFReq accesses
system.cpu.dcache.SoftPFReq_miss_rate::total     0.002681                       # miss rate for SoftPFReq accesses
system.cpu.dcache.SoftPFReq_mshr_misses::.cpu.data            8                       # number of SoftPFReq MSHR misses
system.cpu.dcache.SoftPFReq_mshr_misses::total            8                       # number of SoftPFReq MSHR misses
system.cpu.dcache.SoftPFReq_mshr_miss_latency::.cpu.data       330000                       # number of SoftPFReq MSHR miss cycles
system.cpu.dcache.SoftPFReq_mshr_miss_latency::total       330000                       # number of SoftPFReq MSHR miss cycles
system.cpu.dcache.SoftPFReq_mshr_miss_rate::.cpu.data     0.001261                       # mshr miss rate for SoftPFReq accesses
system.cpu.dcache.SoftPFReq_mshr_miss_rate::total     0.001261                       # mshr miss rate for SoftPFReq accesses
system.cpu.dcache.SoftPFReq_avg_mshr_miss_latency::.cpu.data        41250                       # average SoftPFReq mshr miss latency
system.cpu.dcache.SoftPFReq_avg_mshr_miss_latency::total        41250                       # average SoftPFReq mshr miss latency
system.cpu.dcache.WriteLineReq_hits::.cpu.data            3                       # number of WriteLineReq hits
system.cpu.dcache.WriteLineReq_hits::total            3                       # number of WriteLineReq hits
system.cpu.dcache.WriteLineReq_misses::.cpu.data          205                       # number of WriteLineReq misses
system.cpu.dcache.WriteLineReq_misses::total          205                       # number of WriteLineReq misses
system.cpu.dcache.WriteLineReq_miss_latency::.cpu.data      6612000                       # number of WriteLineReq miss cycles
system.cpu.dcache.WriteLineReq_miss_latency::total      6612000                       # number of WriteLineReq miss cycles
system.cpu.dcache.WriteLineReq_accesses::.cpu.data          208                       # number of WriteLineReq accesses(hits+misses)
system.cpu.dcache.WriteLineReq_accesses::total          208                       # number of WriteLineReq accesses(hits+misses)
system.cpu.dcache.WriteLineReq_miss_rate::.cpu.data     0.985577                       # miss rate for WriteLineReq accesses
system.cpu.dcache.WriteLineReq_miss_rate::total     0.985577                       # miss rate for WriteLineReq accesses
system.cpu.dcache.WriteLineReq_avg_miss_latency::.cpu.data 32253.658537                       # average WriteLineReq miss latency
system.cpu.dcache.WriteLineReq_avg_miss_latency::total 32253.658537                       # average WriteLineReq miss latency
system.cpu.dcache.WriteLineReq_mshr_misses::.cpu.data          205                       # number of WriteLineReq MSHR misses
system.cpu.dcache.WriteLineReq_mshr_misses::total          205                       # number of WriteLineReq MSHR misses
system.cpu.dcache.WriteLineReq_mshr_miss_latency::.cpu.data      6407000                       # number of WriteLineReq MSHR miss cycles
system.cpu.dcache.WriteLineReq_mshr_miss_latency::total      6407000                       # number of WriteLineReq MSHR miss cycles
system.cpu.dcache.WriteLineReq_mshr_miss_rate::.cpu.data     0.985577                       # mshr miss rate for WriteLineReq accesses
system.cpu.dcache.WriteLineReq_mshr_miss_rate::total     0.985577                       # mshr miss rate for WriteLineReq accesses
system.cpu.dcache.WriteLineReq_avg_mshr_miss_latency::.cpu.data 31253.658537                       # average WriteLineReq mshr miss latency
system.cpu.dcache.WriteLineReq_avg_mshr_miss_latency::total 31253.658537                       # average WriteLineReq mshr miss latency
system.cpu.dcache.LoadLockedReq_hits::.cpu.data          587                       # number of LoadLockedReq hits
system.cpu.dcache.LoadLockedReq_hits::total          587                       # number of LoadLockedReq hits
system.cpu.dcache.LoadLockedReq_misses::.cpu.data            9                       # number of LoadLockedReq misses
system.cpu.dcache.LoadLockedReq_misses::total            9                       # number of LoadLockedReq misses
system.cpu.dcache.LoadLockedReq_miss_latency::.cpu.data       709500                       # number of LoadLockedReq miss cycles
system.cpu.dcache.LoadLockedReq_miss_latency::total       709500                       # number of LoadLockedReq miss cycles
system.cpu.dcache.LoadLockedReq_accesses::.cpu.data          596                       # number of LoadLockedReq accesses(hits+misses)
system.cpu.dcache.LoadLockedReq_accesses::total          596                       # number of LoadLockedReq accesses(hits+misses)
system.cpu.dcache.LoadLockedReq_miss_rate::.cpu.data     0.015101                       # miss rate for LoadLockedReq accesses
system.cpu.dcache.LoadLockedReq_miss_rate::total     0.015101                       # miss rate for LoadLockedReq accesses
system.cpu.dcache.LoadLockedReq_avg_miss_latency::.cpu.data 78833.333333                       # average LoadLockedReq miss latency
system.cpu.dcache.LoadLockedReq_avg_miss_latency::total 78833.333333                       # average LoadLockedReq miss latency
system.cpu.dcache.LoadLockedReq_mshr_hits::.cpu.data            7                       # number of LoadLockedReq MSHR hits
system.cpu.dcache.LoadLockedReq_mshr_hits::total            7                       # number of LoadLockedReq MSHR hits
system.cpu.dcache.LoadLockedReq_mshr_misses::.cpu.data            2                       # number of LoadLockedReq MSHR misses
system.cpu.dcache.LoadLockedReq_mshr_misses::total            2                       # number of LoadLockedReq MSHR misses
system.cpu.dcache.LoadLockedReq_mshr_miss_latency::.cpu.data       419500                       # number of LoadLockedReq MSHR miss cycles
system.cpu.dcache.LoadLockedReq_mshr_miss_latency::total       419500                       # number of LoadLockedReq MSHR miss cycles
system.cpu.dcache.LoadLockedReq_mshr_miss_rate::.cpu.data     0.003356                       # mshr miss rate for LoadLockedReq accesses
system.cpu.dcache.LoadLockedReq_mshr_miss_rate::total     0.003356                       # mshr miss rate for LoadLockedReq accesses
system.cpu.dcache.LoadLockedReq_avg_mshr_miss_latency::.cpu.data       209750                       # average LoadLockedReq mshr miss latency
system.cpu.dcache.LoadLockedReq_avg_mshr_miss_latency::total       209750                       # average LoadLockedReq mshr miss latency
system.cpu.dcache.StoreCondReq_hits::.cpu.data          550                       # number of StoreCondReq hits
system.cpu.dcache.StoreCondReq_hits::total          550                       # number of StoreCondReq hits
system.cpu.dcache.StoreCondReq_accesses::.cpu.data          550                       # number of StoreCondReq accesses(hits+misses)
system.cpu.dcache.StoreCondReq_accesses::total          550                       # number of StoreCondReq accesses(hits+misses)
system.cpu.dcache.power_state.pwrStateResidencyTicks::UNDEFINED   4104966000                       # Cumulative time (in ticks) in various power states
system.cpu.dcache.tags.tagsinuse           998.842231                       # Cycle average of tags in use
system.cpu.dcache.tags.total_refs             4273833                       # Total number of references to valid blocks.
system.cpu.dcache.tags.sampled_refs             34922                       # Sample count of references to valid blocks.
system.cpu.dcache.tags.avg_refs            122.382252                       # Average number of references to valid blocks.
system.cpu.dcache.tags.warmup_cycle            176500                       # Cycle when the warmup percentage was hit.
system.cpu.dcache.tags.occ_blocks::.cpu.data   998.842231                       # Average occupied blocks per requestor
system.cpu.dcache.tags.occ_percent::.cpu.data     0.975432                       # Average percentage of cache occupancy
system.cpu.dcache.tags.occ_percent::total     0.975432                       # Average percentage of cache occupancy
system.cpu.dcache.tags.occ_task_id_blocks::1024         1024                       # Occupied blocks per task id
system.cpu.dcache.tags.age_task_id_blocks_1024::0          203                       # Occupied blocks per task id
system.cpu.dcache.tags.age_task_id_blocks_1024::1          514                       # Occupied blocks per task id
system.cpu.dcache.tags.age_task_id_blocks_1024::2          299                       # Occupied blocks per task id
system.cpu.dcache.tags.age_task_id_blocks_1024::3            8                       # Occupied blocks per task id
system.cpu.dcache.tags.occ_task_id_percent::1024            1                       # Percentage of cache occupancy per task id
system.cpu.dcache.tags.tag_accesses           8823992                       # Number of tag accesses
system.cpu.dcache.tags.data_accesses          8823992                       # Number of data accesses
system.cpu.dcache.tags.power_state.pwrStateResidencyTicks::UNDEFINED   4104966000                       # Cumulative time (in ticks) in various power states
system.cpu.power_state.pwrStateResidencyTicks::ON   4104966000                       # Cumulative time (in ticks) in various power states

---------- End Simulation Statistics   ----------
