
---------- Begin Simulation Statistics ----------
final_tick                                   59369500                       # Number of ticks from beginning of simulation (restored from checkpoints and never reset)
host_inst_rate                                 108411                       # Simulator instruction rate (inst/s)
host_mem_usage                                 865872                       # Number of bytes of host memory used
host_op_rate                                   130970                       # Simulator op (including micro ops) rate (op/s)
host_seconds                                     0.22                       # Real time elapsed on the host
host_tick_rate                              273283539                       # Simulator tick rate (ticks/s)
sim_freq                                 1000000000000                       # Frequency of simulated ticks
sim_insts                                       23532                       # Number of instructions simulated
sim_ops                                         28450                       # Number of ops (including micro ops) simulated
sim_seconds                                  0.000059                       # Number of seconds simulated
sim_ticks                                    59369500                       # Number of ticks simulated
system.cpu.branchPred.BTBCorrect                    0                       # Number of correct BTB predictions (this stat may not work properly.
system.cpu.branchPred.BTBHitPct             64.864865                       # BTB Hit Percentage
system.cpu.branchPred.BTBHits                    3072                       # Number of BTB hits
system.cpu.branchPred.BTBLookups                 4736                       # Number of BTB lookups
system.cpu.branchPred.RASInCorrect                  5                       # Number of incorrect RAS predictions.
system.cpu.branchPred.condIncorrect              1355                       # Number of conditional branches incorrect
system.cpu.branchPred.condPredicted              7783                       # Number of conditional branches predicted
system.cpu.branchPred.indirectHits                 37                       # Number of indirect target hits.
system.cpu.branchPred.indirectLookups             403                       # Number of indirect predictor lookups.
system.cpu.branchPred.indirectMisses              366                       # Number of indirect misses.
system.cpu.branchPred.lookups                   10957                       # Number of BP lookups
system.cpu.branchPred.usedRAS                     935                       # Number of times the RAS was used to get a target.
system.cpu.branchPredindirectMispredicted          107                       # Number of mispredicted indirect branches.
system.cpu.cc_regfile_reads                      8703                       # number of cc regfile reads
system.cpu.cc_regfile_writes                     8544                       # number of cc regfile writes
system.cpu.commit.amos                              0                       # Number of atomic instructions committed
system.cpu.commit.branchMispredicts               907                       # The number of times a branch was mispredicted
system.cpu.commit.branches                       5605                       # Number of branches committed
system.cpu.commit.bw_lim_events                  1088                       # number cycles where commit BW limit reached
system.cpu.commit.commitNonSpecStalls              54                       # The number of times commit has been forced to stall to communicate backwards
system.cpu.commit.commitSquashedInsts           13913                       # The number of squashed insts skipped by commit
system.cpu.commit.committedInsts                23588                       # Number of instructions committed
system.cpu.commit.committedOps                  28506                       # Number of ops (including micro ops) committed
system.cpu.commit.committed_per_cycle::samples        43882                       # Number of insts commited each cycle
system.cpu.commit.committed_per_cycle::mean     0.649606                       # Number of insts commited each cycle
system.cpu.commit.committed_per_cycle::stdev     1.670891                       # Number of insts commited each cycle
system.cpu.commit.committed_per_cycle::underflows            0      0.00%      0.00% # Number of insts commited each cycle
system.cpu.commit.committed_per_cycle::0        34565     78.77%     78.77% # Number of insts commited each cycle
system.cpu.commit.committed_per_cycle::1         3531      8.05%     86.81% # Number of insts commited each cycle
system.cpu.commit.committed_per_cycle::2         1882      4.29%     91.10% # Number of insts commited each cycle
system.cpu.commit.committed_per_cycle::3          913      2.08%     93.18% # Number of insts commited each cycle
system.cpu.commit.committed_per_cycle::4          657      1.50%     94.68% # Number of insts commited each cycle
system.cpu.commit.committed_per_cycle::5          560      1.28%     95.96% # Number of insts commited each cycle
system.cpu.commit.committed_per_cycle::6          462      1.05%     97.01% # Number of insts commited each cycle
system.cpu.commit.committed_per_cycle::7          224      0.51%     97.52% # Number of insts commited each cycle
system.cpu.commit.committed_per_cycle::8         1088      2.48%    100.00% # Number of insts commited each cycle
system.cpu.commit.committed_per_cycle::overflows            0      0.00%    100.00% # Number of insts commited each cycle
system.cpu.commit.committed_per_cycle::min_value            0                       # Number of insts commited each cycle
system.cpu.commit.committed_per_cycle::max_value            8                       # Number of insts commited each cycle
system.cpu.commit.committed_per_cycle::total        43882                       # Number of insts commited each cycle
system.cpu.commit.fp_insts                          0                       # Number of committed floating point instructions.
system.cpu.commit.function_calls                  490                       # Number of function calls committed.
system.cpu.commit.int_insts                     25886                       # Number of committed integer instructions.
system.cpu.commit.loads                          4020                       # Number of loads committed
system.cpu.commit.membars                          36                       # Number of memory barriers committed
system.cpu.commit.op_class_0::No_OpClass            7      0.02%      0.02% # Class of committed instruction
system.cpu.commit.op_class_0::IntAlu            19666     68.99%     69.01% # Class of committed instruction
system.cpu.commit.op_class_0::IntMult              42      0.15%     69.16% # Class of committed instruction
system.cpu.commit.op_class_0::IntDiv                3      0.01%     69.17% # Class of committed instruction
system.cpu.commit.op_class_0::FloatAdd              0      0.00%     69.17% # Class of committed instruction
system.cpu.commit.op_class_0::FloatCmp              0      0.00%     69.17% # Class of committed instruction
system.cpu.commit.op_class_0::FloatCvt              0      0.00%     69.17% # Class of committed instruction
system.cpu.commit.op_class_0::FloatMult             0      0.00%     69.17% # Class of committed instruction
system.cpu.commit.op_class_0::FloatMultAcc            0      0.00%     69.17% # Class of committed instruction
system.cpu.commit.op_class_0::FloatDiv              0      0.00%     69.17% # Class of committed instruction
system.cpu.commit.op_class_0::FloatMisc             0      0.00%     69.17% # Class of committed instruction
system.cpu.commit.op_class_0::FloatSqrt             0      0.00%     69.17% # Class of committed instruction
system.cpu.commit.op_class_0::SimdAdd              26      0.09%     69.26% # Class of committed instruction
system.cpu.commit.op_class_0::SimdAddAcc            0      0.00%     69.26% # Class of committed instruction
system.cpu.commit.op_class_0::SimdAlu              26      0.09%     69.35% # Class of committed instruction
system.cpu.commit.op_class_0::SimdCmp              28      0.10%     69.45% # Class of committed instruction
system.cpu.commit.op_class_0::SimdCvt               0      0.00%     69.45% # Class of committed instruction
system.cpu.commit.op_class_0::SimdMisc             30      0.11%     69.56% # Class of committed instruction
system.cpu.commit.op_class_0::SimdMult              0      0.00%     69.56% # Class of committed instruction
system.cpu.commit.op_class_0::SimdMultAcc            0      0.00%     69.56% # Class of committed instruction
system.cpu.commit.op_class_0::SimdShift             0      0.00%     69.56% # Class of committed instruction
system.cpu.commit.op_class_0::SimdShiftAcc            0      0.00%     69.56% # Class of committed instruction
system.cpu.commit.op_class_0::SimdDiv               0      0.00%     69.56% # Class of committed instruction
system.cpu.commit.op_class_0::SimdSqrt              0      0.00%     69.56% # Class of committed instruction
system.cpu.commit.op_class_0::SimdFloatAdd            0      0.00%     69.56% # Class of committed instruction
system.cpu.commit.op_class_0::SimdFloatAlu            0      0.00%     69.56% # Class of committed instruction
system.cpu.commit.op_class_0::SimdFloatCmp            0      0.00%     69.56% # Class of committed instruction
system.cpu.commit.op_class_0::SimdFloatCvt            0      0.00%     69.56% # Class of committed instruction
system.cpu.commit.op_class_0::SimdFloatDiv            0      0.00%     69.56% # Class of committed instruction
system.cpu.commit.op_class_0::SimdFloatMisc            0      0.00%     69.56% # Class of committed instruction
system.cpu.commit.op_class_0::SimdFloatMult            0      0.00%     69.56% # Class of committed instruction
system.cpu.commit.op_class_0::SimdFloatMultAcc            0      0.00%     69.56% # Class of committed instruction
system.cpu.commit.op_class_0::SimdFloatSqrt            0      0.00%     69.56% # Class of committed instruction
system.cpu.commit.op_class_0::SimdReduceAdd            0      0.00%     69.56% # Class of committed instruction
system.cpu.commit.op_class_0::SimdReduceAlu            0      0.00%     69.56% # Class of committed instruction
system.cpu.commit.op_class_0::SimdReduceCmp            0      0.00%     69.56% # Class of committed instruction
system.cpu.commit.op_class_0::SimdFloatReduceAdd            0      0.00%     69.56% # Class of committed instruction
system.cpu.commit.op_class_0::SimdFloatReduceCmp            0      0.00%     69.56% # Class of committed instruction
system.cpu.commit.op_class_0::SimdAes               0      0.00%     69.56% # Class of committed instruction
system.cpu.commit.op_class_0::SimdAesMix            0      0.00%     69.56% # Class of committed instruction
system.cpu.commit.op_class_0::SimdSha1Hash            0      0.00%     69.56% # Class of committed instruction
system.cpu.commit.op_class_0::SimdSha1Hash2            0      0.00%     69.56% # Class of committed instruction
system.cpu.commit.op_class_0::SimdSha256Hash            0      0.00%     69.56% # Class of committed instruction
system.cpu.commit.op_class_0::SimdSha256Hash2            0      0.00%     69.56% # Class of committed instruction
system.cpu.commit.op_class_0::SimdShaSigma2            0      0.00%     69.56% # Class of committed instruction
system.cpu.commit.op_class_0::SimdShaSigma3            0      0.00%     69.56% # Class of committed instruction
system.cpu.commit.op_class_0::SimdPredAlu            0      0.00%     69.56% # Class of committed instruction
system.cpu.commit.op_class_0::MemRead            4020     14.10%     83.66% # Class of committed instruction
system.cpu.commit.op_class_0::MemWrite           4658     16.34%    100.00% # Class of committed instruction
system.cpu.commit.op_class_0::FloatMemRead            0      0.00%    100.00% # Class of committed instruction
system.cpu.commit.op_class_0::FloatMemWrite            0      0.00%    100.00% # Class of committed instruction
system.cpu.commit.op_class_0::IprAccess             0      0.00%    100.00% # Class of committed instruction
system.cpu.commit.op_class_0::InstPrefetch            0      0.00%    100.00% # Class of committed instruction
system.cpu.commit.op_class_0::total             28506                       # Class of committed instruction
system.cpu.commit.refs                           8678                       # Number of memory references committed
system.cpu.commit.swp_count                         0                       # Number of s/w prefetches committed
system.cpu.commit.vec_insts                       413                       # Number of committed Vector instructions.
system.cpu.committedInsts                       23532                       # Number of Instructions Simulated
system.cpu.committedOps                         28450                       # Number of Ops (including micro ops) Simulated
system.cpu.cpi                               5.045895                       # CPI: Cycles Per Instruction
system.cpu.cpi_total                         5.045895                       # CPI: Total CPI of All Threads
system.cpu.decode.BlockedCycles                 12762                       # Number of cycles decode is blocked
system.cpu.decode.BranchMispred                   454                       # Number of times decode detected a branch misprediction
system.cpu.decode.BranchResolved                 3313                       # Number of times decode resolved a branch
system.cpu.decode.DecodedInsts                  47889                       # Number of instructions handled by decode
system.cpu.decode.IdleCycles                    23884                       # Number of cycles decode is idle
system.cpu.decode.RunCycles                      7924                       # Number of cycles decode is running
system.cpu.decode.SquashCycles                    941                       # Number of cycles decode is squashing
system.cpu.decode.SquashedInsts                  1505                       # Number of squashed instructions handled by decode
system.cpu.decode.UnblockCycles                   699                       # Number of cycles decode is unblocking
system.cpu.dtb.accesses                             0                       # DTB accesses
system.cpu.dtb.align_faults                         0                       # Number of TLB faults due to alignment restrictions
system.cpu.dtb.domain_faults                        0                       # Number of TLB faults due to domain restrictions
system.cpu.dtb.flush_entries                        0                       # Number of entries that have been flushed from TLB
system.cpu.dtb.flush_tlb                            0                       # Number of times complete TLB was flushed
system.cpu.dtb.flush_tlb_asid                       0                       # Number of times TLB was flushed by ASID
system.cpu.dtb.flush_tlb_mva                        0                       # Number of times TLB was flushed by MVA
system.cpu.dtb.flush_tlb_mva_asid                   0                       # Number of times TLB was flushed by MVA & ASID
system.cpu.dtb.hits                                 0                       # DTB hits
system.cpu.dtb.inst_accesses                        0                       # ITB inst accesses
system.cpu.dtb.inst_hits                            0                       # ITB inst hits
system.cpu.dtb.inst_misses                          0                       # ITB inst misses
system.cpu.dtb.misses                               0                       # DTB misses
system.cpu.dtb.perms_faults                         0                       # Number of TLB faults due to permissions restrictions
system.cpu.dtb.prefetch_faults                      0                       # Number of TLB faults due to prefetch
system.cpu.dtb.read_accesses                        0                       # DTB read accesses
system.cpu.dtb.read_hits                            0                       # DTB read hits
system.cpu.dtb.read_misses                          0                       # DTB read misses
system.cpu.dtb.stage2_mmu.stage2_tlb.accesses            0                       # DTB accesses
system.cpu.dtb.stage2_mmu.stage2_tlb.align_faults            0                       # Number of TLB faults due to alignment restrictions
system.cpu.dtb.stage2_mmu.stage2_tlb.domain_faults            0                       # Number of TLB faults due to domain restrictions
system.cpu.dtb.stage2_mmu.stage2_tlb.flush_entries            0                       # Number of entries that have been flushed from TLB
system.cpu.dtb.stage2_mmu.stage2_tlb.flush_tlb            0                       # Number of times complete TLB was flushed
system.cpu.dtb.stage2_mmu.stage2_tlb.flush_tlb_asid            0                       # Number of times TLB was flushed by ASID
system.cpu.dtb.stage2_mmu.stage2_tlb.flush_tlb_mva            0                       # Number of times TLB was flushed by MVA
system.cpu.dtb.stage2_mmu.stage2_tlb.flush_tlb_mva_asid            0                       # Number of times TLB was flushed by MVA & ASID
system.cpu.dtb.stage2_mmu.stage2_tlb.hits            0                       # DTB hits
system.cpu.dtb.stage2_mmu.stage2_tlb.inst_accesses            0                       # ITB inst accesses
system.cpu.dtb.stage2_mmu.stage2_tlb.inst_hits            0                       # ITB inst hits
system.cpu.dtb.stage2_mmu.stage2_tlb.inst_misses            0                       # ITB inst misses
system.cpu.dtb.stage2_mmu.stage2_tlb.misses            0                       # DTB misses
system.cpu.dtb.stage2_mmu.stage2_tlb.perms_faults            0                       # Number of TLB faults due to permissions restrictions
system.cpu.dtb.stage2_mmu.stage2_tlb.prefetch_faults            0                       # Number of TLB faults due to prefetch
system.cpu.dtb.stage2_mmu.stage2_tlb.read_accesses            0                       # DTB read accesses
system.cpu.dtb.stage2_mmu.stage2_tlb.read_hits            0                       # DTB read hits
system.cpu.dtb.stage2_mmu.stage2_tlb.read_misses            0                       # DTB read misses
system.cpu.dtb.stage2_mmu.stage2_tlb.walker.walkRequestOrigin_Requested::Data            0                       # Table walker requests started/completed, data/inst
system.cpu.dtb.stage2_mmu.stage2_tlb.walker.walkRequestOrigin_Requested::Inst            0                       # Table walker requests started/completed, data/inst
system.cpu.dtb.stage2_mmu.stage2_tlb.walker.walkRequestOrigin_Requested::total            0                       # Table walker requests started/completed, data/inst
system.cpu.dtb.stage2_mmu.stage2_tlb.walker.walkRequestOrigin_Completed::Data            0                       # Table walker requests started/completed, data/inst
system.cpu.dtb.stage2_mmu.stage2_tlb.walker.walkRequestOrigin_Completed::Inst            0                       # Table walker requests started/completed, data/inst
system.cpu.dtb.stage2_mmu.stage2_tlb.walker.walkRequestOrigin_Completed::total            0                       # Table walker requests started/completed, data/inst
system.cpu.dtb.stage2_mmu.stage2_tlb.walker.walkRequestOrigin::total            0                       # Table walker requests started/completed, data/inst
system.cpu.dtb.stage2_mmu.stage2_tlb.walker.walks            0                       # Table walker walks requested
system.cpu.dtb.stage2_mmu.stage2_tlb.write_accesses            0                       # DTB write accesses
system.cpu.dtb.stage2_mmu.stage2_tlb.write_hits            0                       # DTB write hits
system.cpu.dtb.stage2_mmu.stage2_tlb.write_misses            0                       # DTB write misses
system.cpu.dtb.walker.walkRequestOrigin_Requested::Data            0                       # Table walker requests started/completed, data/inst
system.cpu.dtb.walker.walkRequestOrigin_Requested::Inst            0                       # Table walker requests started/completed, data/inst
system.cpu.dtb.walker.walkRequestOrigin_Requested::total            0                       # Table walker requests started/completed, data/inst
system.cpu.dtb.walker.walkRequestOrigin_Completed::Data            0                       # Table walker requests started/completed, data/inst
system.cpu.dtb.walker.walkRequestOrigin_Completed::Inst            0                       # Table walker requests started/completed, data/inst
system.cpu.dtb.walker.walkRequestOrigin_Completed::total            0                       # Table walker requests started/completed, data/inst
system.cpu.dtb.walker.walkRequestOrigin::total            0                       # Table walker requests started/completed, data/inst
system.cpu.dtb.walker.walks                         0                       # Table walker walks requested
system.cpu.dtb.write_accesses                       0                       # DTB write accesses
system.cpu.dtb.write_hits                           0                       # DTB write hits
system.cpu.dtb.write_misses                         0                       # DTB write misses
system.cpu.fetch.Branches                       10957                       # Number of branches that fetch encountered
system.cpu.fetch.CacheLines                      6649                       # Number of cache lines fetched
system.cpu.fetch.Cycles                         16194                       # Number of cycles fetch has run and was not squashing or blocked
system.cpu.fetch.IcacheSquashes                   898                       # Number of outstanding Icache misses that were squashed
system.cpu.fetch.IcacheWaitRetryStallCycles           87                       # Number of stall cycles due to full MSHR
system.cpu.fetch.Insts                          46645                       # Number of instructions fetch has processed
system.cpu.fetch.MiscStallCycles                    7                       # Number of cycles fetch has spent waiting on interrupts, or bad addresses, or out of MSHRs
system.cpu.fetch.SquashCycles                    2778                       # Number of cycles fetch has spent squashing
system.cpu.fetch.branchRate                  0.092277                       # Number of branch fetches per cycle
system.cpu.fetch.icacheStallCycles              28533                       # Number of cycles fetch is stalled on an Icache miss
system.cpu.fetch.predictedBranches               4044                       # Number of branches that fetch has predicted taken
system.cpu.fetch.rate                        0.392833                       # Number of inst fetches per cycle
system.cpu.fetch.rateDist::samples              46210                       # Number of instructions fetched each cycle (Total)
system.cpu.fetch.rateDist::mean              1.200216                       # Number of instructions fetched each cycle (Total)
system.cpu.fetch.rateDist::stdev             2.571657                       # Number of instructions fetched each cycle (Total)
system.cpu.fetch.rateDist::underflows               0      0.00%      0.00% # Number of instructions fetched each cycle (Total)
system.cpu.fetch.rateDist::0                    36072     78.06%     78.06% # Number of instructions fetched each cycle (Total)
system.cpu.fetch.rateDist::1                     1060      2.29%     80.35% # Number of instructions fetched each cycle (Total)
system.cpu.fetch.rateDist::2                     1081      2.34%     82.69% # Number of instructions fetched each cycle (Total)
system.cpu.fetch.rateDist::3                      671      1.45%     84.15% # Number of instructions fetched each cycle (Total)
system.cpu.fetch.rateDist::4                      991      2.14%     86.29% # Number of instructions fetched each cycle (Total)
system.cpu.fetch.rateDist::5                      638      1.38%     87.67% # Number of instructions fetched each cycle (Total)
system.cpu.fetch.rateDist::6                      937      2.03%     89.70% # Number of instructions fetched each cycle (Total)
system.cpu.fetch.rateDist::7                      629      1.36%     91.06% # Number of instructions fetched each cycle (Total)
system.cpu.fetch.rateDist::8                     4131      8.94%    100.00% # Number of instructions fetched each cycle (Total)
system.cpu.fetch.rateDist::overflows                0      0.00%    100.00% # Number of instructions fetched each cycle (Total)
system.cpu.fetch.rateDist::min_value                0                       # Number of instructions fetched each cycle (Total)
system.cpu.fetch.rateDist::max_value                8                       # Number of instructions fetched each cycle (Total)
system.cpu.fetch.rateDist::total                46210                       # Number of instructions fetched each cycle (Total)
system.cpu.idleCycles                           72530                       # Total number of cycles that the CPU has spent unscheduled due to idling
system.cpu.iew.branchMispredicts                 1083                       # Number of branch mispredicts detected at execute
system.cpu.iew.exec_branches                     7015                       # Number of branches executed
system.cpu.iew.exec_nop                           114                       # number of nop insts executed
system.cpu.iew.exec_rate                     0.317989                       # Inst execution rate
system.cpu.iew.exec_refs                        11565                       # number of memory reference insts executed
system.cpu.iew.exec_stores                       5676                       # Number of stores executed
system.cpu.iew.exec_swp                             0                       # number of swp insts executed
system.cpu.iew.iewBlockCycles                    2194                       # Number of cycles IEW is blocking
system.cpu.iew.iewDispLoadInsts                  6300                       # Number of dispatched load instructions
system.cpu.iew.iewDispNonSpecInsts                 94                       # Number of dispatched non-speculative instructions
system.cpu.iew.iewDispSquashedInsts               226                       # Number of squashed instructions skipped by dispatch
system.cpu.iew.iewDispStoreInsts                 6725                       # Number of dispatched store instructions
system.cpu.iew.iewDispatchedInsts               42427                       # Number of instructions dispatched to IQ
system.cpu.iew.iewExecLoadInsts                  5889                       # Number of load instructions executed
system.cpu.iew.iewExecSquashedInsts              1214                       # Number of squashed instructions skipped in execute
system.cpu.iew.iewExecutedInsts                 37758                       # Number of executed instructions
system.cpu.iew.iewIQFullEvents                      9                       # Number of times the IQ has become full, causing a stall
system.cpu.iew.iewIdleCycles                        0                       # Number of cycles IEW is idle
system.cpu.iew.iewLSQFullEvents                   481                       # Number of times the LSQ has become full, causing a stall
system.cpu.iew.iewSquashCycles                    941                       # Number of cycles IEW is squashing
system.cpu.iew.iewUnblockCycles                   492                       # Number of cycles IEW is unblocking
system.cpu.iew.lsq.thread0.blockedLoads             0                       # Number of blocked loads due to partial load-store forwarding
system.cpu.iew.lsq.thread0.cacheBlocked            77                       # Number of times an access to memory failed due to the cache being blocked
system.cpu.iew.lsq.thread0.forwLoads               93                       # Number of loads that had data forwarded from stores
system.cpu.iew.lsq.thread0.ignoredResponses            5                       # Number of memory responses ignored because the instruction is squashed
system.cpu.iew.lsq.thread0.invAddrLoads             0                       # Number of loads ignored due to an invalid address
system.cpu.iew.lsq.thread0.invAddrSwpfs             0                       # Number of software prefetches ignored due to an invalid address
system.cpu.iew.lsq.thread0.memOrderViolation           19                       # Number of memory ordering violations
system.cpu.iew.lsq.thread0.rescheduledLoads           99                       # Number of loads that were rescheduled
system.cpu.iew.lsq.thread0.squashedLoads         2280                       # Number of loads squashed
system.cpu.iew.lsq.thread0.squashedStores         2067                       # Number of stores squashed
system.cpu.iew.memOrderViolationEvents             19                       # Number of memory order violations
system.cpu.iew.predictedNotTakenIncorrect          964                       # Number of branches that were predicted not taken incorrectly
system.cpu.iew.predictedTakenIncorrect            119                       # Number of branches that were predicted taken incorrectly
system.cpu.iew.wb_consumers                     31623                       # num instructions consuming a value
system.cpu.iew.wb_count                         36430                       # cumulative count of insts written-back
system.cpu.iew.wb_fanout                     0.566107                       # average fanout of values written-back
system.cpu.iew.wb_producers                     17902                       # num instructions producing a value
system.cpu.iew.wb_rate                       0.306805                       # insts written-back per cycle
system.cpu.iew.wb_sent                          37015                       # cumulative count of insts sent to commit
system.cpu.int_regfile_reads                    41774                       # number of integer regfile reads
system.cpu.int_regfile_writes                   25715                       # number of integer regfile writes
system.cpu.ipc                               0.198181                       # IPC: Instructions Per Cycle
system.cpu.ipc_total                         0.198181                       # IPC: Total IPC of All Threads
system.cpu.iq.FU_type_0::No_OpClass                 9      0.02%      0.02% # Type of FU issued
system.cpu.iq.FU_type_0::IntAlu                 26650     68.38%     68.41% # Type of FU issued
system.cpu.iq.FU_type_0::IntMult                   43      0.11%     68.52% # Type of FU issued
system.cpu.iq.FU_type_0::IntDiv                     4      0.01%     68.53% # Type of FU issued
system.cpu.iq.FU_type_0::FloatAdd                   0      0.00%     68.53% # Type of FU issued
system.cpu.iq.FU_type_0::FloatCmp                   0      0.00%     68.53% # Type of FU issued
system.cpu.iq.FU_type_0::FloatCvt                   0      0.00%     68.53% # Type of FU issued
system.cpu.iq.FU_type_0::FloatMult                  0      0.00%     68.53% # Type of FU issued
system.cpu.iq.FU_type_0::FloatMultAcc               0      0.00%     68.53% # Type of FU issued
system.cpu.iq.FU_type_0::FloatDiv                   0      0.00%     68.53% # Type of FU issued
system.cpu.iq.FU_type_0::FloatMisc                  0      0.00%     68.53% # Type of FU issued
system.cpu.iq.FU_type_0::FloatSqrt                  0      0.00%     68.53% # Type of FU issued
system.cpu.iq.FU_type_0::SimdAdd                   31      0.08%     68.61% # Type of FU issued
system.cpu.iq.FU_type_0::SimdAddAcc                 0      0.00%     68.61% # Type of FU issued
system.cpu.iq.FU_type_0::SimdAlu                   33      0.08%     68.69% # Type of FU issued
system.cpu.iq.FU_type_0::SimdCmp                   36      0.09%     68.78% # Type of FU issued
system.cpu.iq.FU_type_0::SimdCvt                    0      0.00%     68.78% # Type of FU issued
system.cpu.iq.FU_type_0::SimdMisc                  34      0.09%     68.87% # Type of FU issued
system.cpu.iq.FU_type_0::SimdMult                   0      0.00%     68.87% # Type of FU issued
system.cpu.iq.FU_type_0::SimdMultAcc                0      0.00%     68.87% # Type of FU issued
system.cpu.iq.FU_type_0::SimdShift                  0      0.00%     68.87% # Type of FU issued
system.cpu.iq.FU_type_0::SimdShiftAcc               0      0.00%     68.87% # Type of FU issued
system.cpu.iq.FU_type_0::SimdDiv                    0      0.00%     68.87% # Type of FU issued
system.cpu.iq.FU_type_0::SimdSqrt                   0      0.00%     68.87% # Type of FU issued
system.cpu.iq.FU_type_0::SimdFloatAdd               0      0.00%     68.87% # Type of FU issued
system.cpu.iq.FU_type_0::SimdFloatAlu               0      0.00%     68.87% # Type of FU issued
system.cpu.iq.FU_type_0::SimdFloatCmp               0      0.00%     68.87% # Type of FU issued
system.cpu.iq.FU_type_0::SimdFloatCvt               0      0.00%     68.87% # Type of FU issued
system.cpu.iq.FU_type_0::SimdFloatDiv               0      0.00%     68.87% # Type of FU issued
system.cpu.iq.FU_type_0::SimdFloatMisc              0      0.00%     68.87% # Type of FU issued
system.cpu.iq.FU_type_0::SimdFloatMult              0      0.00%     68.87% # Type of FU issued
system.cpu.iq.FU_type_0::SimdFloatMultAcc            0      0.00%     68.87% # Type of FU issued
system.cpu.iq.FU_type_0::SimdFloatSqrt              0      0.00%     68.87% # Type of FU issued
system.cpu.iq.FU_type_0::SimdReduceAdd              0      0.00%     68.87% # Type of FU issued
system.cpu.iq.FU_type_0::SimdReduceAlu              0      0.00%     68.87% # Type of FU issued
system.cpu.iq.FU_type_0::SimdReduceCmp              0      0.00%     68.87% # Type of FU issued
system.cpu.iq.FU_type_0::SimdFloatReduceAdd            0      0.00%     68.87% # Type of FU issued
system.cpu.iq.FU_type_0::SimdFloatReduceCmp            0      0.00%     68.87% # Type of FU issued
system.cpu.iq.FU_type_0::SimdAes                    0      0.00%     68.87% # Type of FU issued
system.cpu.iq.FU_type_0::SimdAesMix                 0      0.00%     68.87% # Type of FU issued
system.cpu.iq.FU_type_0::SimdSha1Hash               0      0.00%     68.87% # Type of FU issued
system.cpu.iq.FU_type_0::SimdSha1Hash2              0      0.00%     68.87% # Type of FU issued
system.cpu.iq.FU_type_0::SimdSha256Hash             0      0.00%     68.87% # Type of FU issued
system.cpu.iq.FU_type_0::SimdSha256Hash2            0      0.00%     68.87% # Type of FU issued
system.cpu.iq.FU_type_0::SimdShaSigma2              0      0.00%     68.87% # Type of FU issued
system.cpu.iq.FU_type_0::SimdShaSigma3              0      0.00%     68.87% # Type of FU issued
system.cpu.iq.FU_type_0::SimdPredAlu                0      0.00%     68.87% # Type of FU issued
system.cpu.iq.FU_type_0::MemRead                 6152     15.79%     84.66% # Type of FU issued
system.cpu.iq.FU_type_0::MemWrite                5980     15.34%    100.00% # Type of FU issued
system.cpu.iq.FU_type_0::FloatMemRead               0      0.00%    100.00% # Type of FU issued
system.cpu.iq.FU_type_0::FloatMemWrite              0      0.00%    100.00% # Type of FU issued
system.cpu.iq.FU_type_0::IprAccess                  0      0.00%    100.00% # Type of FU issued
system.cpu.iq.FU_type_0::InstPrefetch               0      0.00%    100.00% # Type of FU issued
system.cpu.iq.FU_type_0::total                  38972                       # Type of FU issued
system.cpu.iq.fp_alu_accesses                       0                       # Number of floating point alu accesses
system.cpu.iq.fp_inst_queue_reads                   0                       # Number of floating instruction queue reads
system.cpu.iq.fp_inst_queue_wakeup_accesses            0                       # Number of floating instruction queue wakeup accesses
system.cpu.iq.fp_inst_queue_writes                  0                       # Number of floating instruction queue writes
system.cpu.iq.fu_busy_cnt                         564                       # FU busy when requested
system.cpu.iq.fu_busy_rate                   0.014472                       # FU busy rate (busy events/executed inst)
system.cpu.iq.fu_full::No_OpClass                   0      0.00%      0.00% # attempts to use FU when none available
system.cpu.iq.fu_full::IntAlu                     184     32.62%     32.62% # attempts to use FU when none available
system.cpu.iq.fu_full::IntMult                      0      0.00%     32.62% # attempts to use FU when none available
system.cpu.iq.fu_full::IntDiv                       0      0.00%     32.62% # attempts to use FU when none available
system.cpu.iq.fu_full::FloatAdd                     0      0.00%     32.62% # attempts to use FU when none available
system.cpu.iq.fu_full::FloatCmp                     0      0.00%     32.62% # attempts to use FU when none available
system.cpu.iq.fu_full::FloatCvt                     0      0.00%     32.62% # attempts to use FU when none available
system.cpu.iq.fu_full::FloatMult                    0      0.00%     32.62% # attempts to use FU when none available
system.cpu.iq.fu_full::FloatMultAcc                 0      0.00%     32.62% # attempts to use FU when none available
system.cpu.iq.fu_full::FloatDiv                     0      0.00%     32.62% # attempts to use FU when none available
system.cpu.iq.fu_full::FloatMisc                    0      0.00%     32.62% # attempts to use FU when none available
system.cpu.iq.fu_full::FloatSqrt                    0      0.00%     32.62% # attempts to use FU when none available
system.cpu.iq.fu_full::SimdAdd                      0      0.00%     32.62% # attempts to use FU when none available
system.cpu.iq.fu_full::SimdAddAcc                   0      0.00%     32.62% # attempts to use FU when none available
system.cpu.iq.fu_full::SimdAlu                      1      0.18%     32.80% # attempts to use FU when none available
system.cpu.iq.fu_full::SimdCmp                      3      0.53%     33.33% # attempts to use FU when none available
system.cpu.iq.fu_full::SimdCvt                      0      0.00%     33.33% # attempts to use FU when none available
system.cpu.iq.fu_full::SimdMisc                     0      0.00%     33.33% # attempts to use FU when none available
system.cpu.iq.fu_full::SimdMult                     0      0.00%     33.33% # attempts to use FU when none available
system.cpu.iq.fu_full::SimdMultAcc                  0      0.00%     33.33% # attempts to use FU when none available
system.cpu.iq.fu_full::SimdShift                    0      0.00%     33.33% # attempts to use FU when none available
system.cpu.iq.fu_full::SimdShiftAcc                 0      0.00%     33.33% # attempts to use FU when none available
system.cpu.iq.fu_full::SimdDiv                      0      0.00%     33.33% # attempts to use FU when none available
system.cpu.iq.fu_full::SimdSqrt                     0      0.00%     33.33% # attempts to use FU when none available
system.cpu.iq.fu_full::SimdFloatAdd                 0      0.00%     33.33% # attempts to use FU when none available
system.cpu.iq.fu_full::SimdFloatAlu                 0      0.00%     33.33% # attempts to use FU when none available
system.cpu.iq.fu_full::SimdFloatCmp                 0      0.00%     33.33% # attempts to use FU when none available
system.cpu.iq.fu_full::SimdFloatCvt                 0      0.00%     33.33% # attempts to use FU when none available
system.cpu.iq.fu_full::SimdFloatDiv                 0      0.00%     33.33% # attempts to use FU when none available
system.cpu.iq.fu_full::SimdFloatMisc                0      0.00%     33.33% # attempts to use FU when none available
system.cpu.iq.fu_full::SimdFloatMult                0      0.00%     33.33% # attempts to use FU when none available
system.cpu.iq.fu_full::SimdFloatMultAcc             0      0.00%     33.33% # attempts to use FU when none available
system.cpu.iq.fu_full::SimdFloatSqrt                0      0.00%     33.33% # attempts to use FU when none available
system.cpu.iq.fu_full::SimdReduceAdd                0      0.00%     33.33% # attempts to use FU when none available
system.cpu.iq.fu_full::SimdReduceAlu                0      0.00%     33.33% # attempts to use FU when none available
system.cpu.iq.fu_full::SimdReduceCmp                0      0.00%     33.33% # attempts to use FU when none available
system.cpu.iq.fu_full::SimdFloatReduceAdd            0      0.00%     33.33% # attempts to use FU when none available
system.cpu.iq.fu_full::SimdFloatReduceCmp            0      0.00%     33.33% # attempts to use FU when none available
system.cpu.iq.fu_full::SimdAes                      0      0.00%     33.33% # attempts to use FU when none available
system.cpu.iq.fu_full::SimdAesMix                   0      0.00%     33.33% # attempts to use FU when none available
system.cpu.iq.fu_full::SimdSha1Hash                 0      0.00%     33.33% # attempts to use FU when none available
system.cpu.iq.fu_full::SimdSha1Hash2                0      0.00%     33.33% # attempts to use FU when none available
system.cpu.iq.fu_full::SimdSha256Hash               0      0.00%     33.33% # attempts to use FU when none available
system.cpu.iq.fu_full::SimdSha256Hash2              0      0.00%     33.33% # attempts to use FU when none available
system.cpu.iq.fu_full::SimdShaSigma2                0      0.00%     33.33% # attempts to use FU when none available
system.cpu.iq.fu_full::SimdShaSigma3                0      0.00%     33.33% # attempts to use FU when none available
system.cpu.iq.fu_full::SimdPredAlu                  0      0.00%     33.33% # attempts to use FU when none available
system.cpu.iq.fu_full::MemRead                    126     22.34%     55.67% # attempts to use FU when none available
system.cpu.iq.fu_full::MemWrite                   250     44.33%    100.00% # attempts to use FU when none available
system.cpu.iq.fu_full::FloatMemRead                 0      0.00%    100.00% # attempts to use FU when none available
system.cpu.iq.fu_full::FloatMemWrite                0      0.00%    100.00% # attempts to use FU when none available
system.cpu.iq.fu_full::IprAccess                    0      0.00%    100.00% # attempts to use FU when none available
system.cpu.iq.fu_full::InstPrefetch                 0      0.00%    100.00% # attempts to use FU when none available
system.cpu.iq.int_alu_accesses                  38847                       # Number of integer alu accesses
system.cpu.iq.int_inst_queue_reads             123499                       # Number of integer instruction queue reads
system.cpu.iq.int_inst_queue_wakeup_accesses        35899                       # Number of integer instruction queue wakeup accesses
system.cpu.iq.int_inst_queue_writes             54950                       # Number of integer instruction queue writes
system.cpu.iq.iqInstsAdded                      42219                       # Number of instructions added to the IQ (excludes non-spec)
system.cpu.iq.iqInstsIssued                     38972                       # Number of instructions issued
system.cpu.iq.iqNonSpecInstsAdded                  94                       # Number of non-speculative instructions added to the IQ
system.cpu.iq.iqSquashedInstsExamined           13862                       # Number of squashed instructions iterated over during squash; mainly for profiling
system.cpu.iq.iqSquashedInstsIssued               218                       # Number of squashed instructions issued
system.cpu.iq.iqSquashedNonSpecRemoved             40                       # Number of squashed non-spec instructions that were removed
system.cpu.iq.iqSquashedOperandsExamined         8628                       # Number of squashed operands that are examined and possibly removed from graph
system.cpu.iq.issued_per_cycle::samples         46210                       # Number of insts issued each cycle
system.cpu.iq.issued_per_cycle::mean         0.843367                       # Number of insts issued each cycle
system.cpu.iq.issued_per_cycle::stdev        1.696523                       # Number of insts issued each cycle
system.cpu.iq.issued_per_cycle::underflows            0      0.00%      0.00% # Number of insts issued each cycle
system.cpu.iq.issued_per_cycle::0               33564     72.63%     72.63% # Number of insts issued each cycle
system.cpu.iq.issued_per_cycle::1                3269      7.07%     79.71% # Number of insts issued each cycle
system.cpu.iq.issued_per_cycle::2                2699      5.84%     85.55% # Number of insts issued each cycle
system.cpu.iq.issued_per_cycle::3                2106      4.56%     90.11% # Number of insts issued each cycle
system.cpu.iq.issued_per_cycle::4                1675      3.62%     93.73% # Number of insts issued each cycle
system.cpu.iq.issued_per_cycle::5                1170      2.53%     96.26% # Number of insts issued each cycle
system.cpu.iq.issued_per_cycle::6                 977      2.11%     98.38% # Number of insts issued each cycle
system.cpu.iq.issued_per_cycle::7                 425      0.92%     99.30% # Number of insts issued each cycle
system.cpu.iq.issued_per_cycle::8                 325      0.70%    100.00% # Number of insts issued each cycle
system.cpu.iq.issued_per_cycle::overflows            0      0.00%    100.00% # Number of insts issued each cycle
system.cpu.iq.issued_per_cycle::min_value            0                       # Number of insts issued each cycle
system.cpu.iq.issued_per_cycle::max_value            8                       # Number of insts issued each cycle
system.cpu.iq.issued_per_cycle::total           46210                       # Number of insts issued each cycle
system.cpu.iq.rate                           0.328213                       # Inst issue rate
system.cpu.iq.vec_alu_accesses                    680                       # Number of vector alu accesses
system.cpu.iq.vec_inst_queue_reads               1437                       # Number of vector instruction queue reads
system.cpu.iq.vec_inst_queue_wakeup_accesses          531                       # Number of vector instruction queue wakeup accesses
system.cpu.iq.vec_inst_queue_writes              1241                       # Number of vector instruction queue writes
system.cpu.itb.accesses                             0                       # DTB accesses
system.cpu.itb.align_faults                         0                       # Number of TLB faults due to alignment restrictions
system.cpu.itb.domain_faults                        0                       # Number of TLB faults due to domain restrictions
system.cpu.itb.flush_entries                        0                       # Number of entries that have been flushed from TLB
system.cpu.itb.flush_tlb                            0                       # Number of times complete TLB was flushed
system.cpu.itb.flush_tlb_asid                       0                       # Number of times TLB was flushed by ASID
system.cpu.itb.flush_tlb_mva                        0                       # Number of times TLB was flushed by MVA
system.cpu.itb.flush_tlb_mva_asid                   0                       # Number of times TLB was flushed by MVA & ASID
system.cpu.itb.hits                                 0                       # DTB hits
system.cpu.itb.inst_accesses                        0                       # ITB inst accesses
system.cpu.itb.inst_hits                            0                       # ITB inst hits
system.cpu.itb.inst_misses                          0                       # ITB inst misses
system.cpu.itb.misses                               0                       # DTB misses
system.cpu.itb.perms_faults                         0                       # Number of TLB faults due to permissions restrictions
system.cpu.itb.prefetch_faults                      0                       # Number of TLB faults due to prefetch
system.cpu.itb.read_accesses                        0                       # DTB read accesses
system.cpu.itb.read_hits                            0                       # DTB read hits
system.cpu.itb.read_misses                          0                       # DTB read misses
system.cpu.itb.stage2_mmu.stage2_tlb.accesses            0                       # DTB accesses
system.cpu.itb.stage2_mmu.stage2_tlb.align_faults            0                       # Number of TLB faults due to alignment restrictions
system.cpu.itb.stage2_mmu.stage2_tlb.domain_faults            0                       # Number of TLB faults due to domain restrictions
system.cpu.itb.stage2_mmu.stage2_tlb.flush_entries            0                       # Number of entries that have been flushed from TLB
system.cpu.itb.stage2_mmu.stage2_tlb.flush_tlb            0                       # Number of times complete TLB was flushed
system.cpu.itb.stage2_mmu.stage2_tlb.flush_tlb_asid            0                       # Number of times TLB was flushed by ASID
system.cpu.itb.stage2_mmu.stage2_tlb.flush_tlb_mva            0                       # Number of times TLB was flushed by MVA
system.cpu.itb.stage2_mmu.stage2_tlb.flush_tlb_mva_asid            0                       # Number of times TLB was flushed by MVA & ASID
system.cpu.itb.stage2_mmu.stage2_tlb.hits            0                       # DTB hits
system.cpu.itb.stage2_mmu.stage2_tlb.inst_accesses            0                       # ITB inst accesses
system.cpu.itb.stage2_mmu.stage2_tlb.inst_hits            0                       # ITB inst hits
system.cpu.itb.stage2_mmu.stage2_tlb.inst_misses            0                       # ITB inst misses
system.cpu.itb.stage2_mmu.stage2_tlb.misses            0                       # DTB misses
system.cpu.itb.stage2_mmu.stage2_tlb.perms_faults            0                       # Number of TLB faults due to permissions restrictions
system.cpu.itb.stage2_mmu.stage2_tlb.prefetch_faults            0                       # Number of TLB faults due to prefetch
system.cpu.itb.stage2_mmu.stage2_tlb.read_accesses            0                       # DTB read accesses
system.cpu.itb.stage2_mmu.stage2_tlb.read_hits            0                       # DTB read hits
system.cpu.itb.stage2_mmu.stage2_tlb.read_misses            0                       # DTB read misses
system.cpu.itb.stage2_mmu.stage2_tlb.walker.walkRequestOrigin_Requested::Data            0                       # Table walker requests started/completed, data/inst
system.cpu.itb.stage2_mmu.stage2_tlb.walker.walkRequestOrigin_Requested::Inst            0                       # Table walker requests started/completed, data/inst
system.cpu.itb.stage2_mmu.stage2_tlb.walker.walkRequestOrigin_Requested::total            0                       # Table walker requests started/completed, data/inst
system.cpu.itb.stage2_mmu.stage2_tlb.walker.walkRequestOrigin_Completed::Data            0                       # Table walker requests started/completed, data/inst
system.cpu.itb.stage2_mmu.stage2_tlb.walker.walkRequestOrigin_Completed::Inst            0                       # Table walker requests started/completed, data/inst
system.cpu.itb.stage2_mmu.stage2_tlb.walker.walkRequestOrigin_Completed::total            0                       # Table walker requests started/completed, data/inst
system.cpu.itb.stage2_mmu.stage2_tlb.walker.walkRequestOrigin::total            0                       # Table walker requests started/completed, data/inst
system.cpu.itb.stage2_mmu.stage2_tlb.walker.walks            0                       # Table walker walks requested
system.cpu.itb.stage2_mmu.stage2_tlb.write_accesses            0                       # DTB write accesses
system.cpu.itb.stage2_mmu.stage2_tlb.write_hits            0                       # DTB write hits
system.cpu.itb.stage2_mmu.stage2_tlb.write_misses            0                       # DTB write misses
system.cpu.itb.walker.walkRequestOrigin_Requested::Data            0                       # Table walker requests started/completed, data/inst
system.cpu.itb.walker.walkRequestOrigin_Requested::Inst            0                       # Table walker requests started/completed, data/inst
system.cpu.itb.walker.walkRequestOrigin_Requested::total            0                       # Table walker requests started/completed, data/inst
system.cpu.itb.walker.walkRequestOrigin_Completed::Data            0                       # Table walker requests started/completed, data/inst
system.cpu.itb.walker.walkRequestOrigin_Completed::Inst            0                       # Table walker requests started/completed, data/inst
system.cpu.itb.walker.walkRequestOrigin_Completed::total            0                       # Table walker requests started/completed, data/inst
system.cpu.itb.walker.walkRequestOrigin::total            0                       # Table walker requests started/completed, data/inst
system.cpu.itb.walker.walks                         0                       # Table walker walks requested
system.cpu.itb.write_accesses                       0                       # DTB write accesses
system.cpu.itb.write_hits                           0                       # DTB write hits
system.cpu.itb.write_misses                         0                       # DTB write misses
system.cpu.memDep0.conflictingLoads                15                       # Number of conflicting loads.
system.cpu.memDep0.conflictingStores               35                       # Number of conflicting stores.
system.cpu.memDep0.insertedLoads                 6300                       # Number of loads inserted to the mem dependence unit.
system.cpu.memDep0.insertedStores                6725                       # Number of stores inserted to the mem dependence unit.
system.cpu.misc_regfile_reads                   29315                       # number of misc regfile reads
system.cpu.misc_regfile_writes                    145                       # number of misc regfile writes
system.cpu.numCycles                           118740                       # number of cpu cycles simulated
system.cpu.numWorkItemsCompleted                    0                       # number of work items this cpu completed
system.cpu.numWorkItemsStarted                      0                       # number of work items this cpu started
system.cpu.rename.BlockCycles                    2914                       # Number of cycles rename is blocking
system.cpu.rename.CommittedMaps                 26781                       # Number of HB maps that are committed
system.cpu.rename.IQFullEvents                    168                       # Number of times rename has blocked due to IQ full
system.cpu.rename.IdleCycles                    24709                       # Number of cycles rename is idle
system.cpu.rename.LQFullEvents                      2                       # Number of times rename has blocked due to LQ full
system.cpu.rename.ROBFullEvents                    11                       # Number of times rename has blocked due to ROB full
system.cpu.rename.RenameLookups                 65157                       # Number of register rename lookups that rename has made
system.cpu.rename.RenamedInsts                  45290                       # Number of instructions processed by rename
system.cpu.rename.RenamedOperands               42222                       # Number of destination operands rename has renamed
system.cpu.rename.RunCycles                      7777                       # Number of cycles rename is running
system.cpu.rename.SQFullEvents                   1475                       # Number of times rename has blocked due to SQ full
system.cpu.rename.SquashCycles                    941                       # Number of cycles rename is squashing
system.cpu.rename.UnblockCycles                  1982                       # Number of cycles rename is unblocking
system.cpu.rename.UndoneMaps                    15441                       # Number of HB maps that are undone due to squashing
system.cpu.rename.int_rename_lookups            50339                       # Number of integer rename lookups
system.cpu.rename.serializeStallCycles           7887                       # count of cycles rename stalled for serializing inst
system.cpu.rename.serializingInsts                302                       # count of serializing insts renamed
system.cpu.rename.skidInsts                      3496                       # count of insts added to the skid buffer
system.cpu.rename.tempSerializingInsts             96                       # count of temporary serializing insts renamed
system.cpu.rename.vec_rename_lookups              926                       # Number of vector rename lookups
system.cpu.rob.rob_reads                        84927                       # The number of ROB reads
system.cpu.rob.rob_writes                       87181                       # The number of ROB writes
system.cpu.timesIdled                             823                       # Number of times that the entire CPU went into an idle state and unscheduled itself
system.cpu.vec_regfile_reads                      592                       # number of vector regfile reads
system.cpu.vec_regfile_writes                     152                       # number of vector regfile writes
system.cpu.workload.numSyscalls                    17                       # Number of system calls
system.membus.snoop_filter.hit_multi_requests            0                       # Number of requests hitting in the snoop filter with multiple (>1) holders of the requested data.
system.membus.snoop_filter.hit_multi_snoops            0                       # Number of snoops hitting in the snoop filter with multiple (>1) holders of the requested data.
system.membus.snoop_filter.hit_single_requests            0                       # Number of requests hitting in the snoop filter with a single holder of the requested data.
system.membus.snoop_filter.hit_single_snoops            0                       # Number of snoops hitting in the snoop filter with a single holder of the requested data.
system.membus.snoop_filter.tot_requests          1242                       # Total number of requests made to the snoop filter.
system.membus.snoop_filter.tot_snoops               0                       # Total number of snoops made to the snoop filter.
system.tol2bus.snoop_filter.hit_multi_requests            2                       # Number of requests hitting in the snoop filter with multiple (>1) holders of the requested data.
system.tol2bus.snoop_filter.hit_multi_snoops            0                       # Number of snoops hitting in the snoop filter with multiple (>1) holders of the requested data.
system.tol2bus.snoop_filter.hit_single_requests         1090                       # Number of requests hitting in the snoop filter with a single holder of the requested data.
system.tol2bus.snoop_filter.hit_single_snoops            0                       # Number of snoops hitting in the snoop filter with a single holder of the requested data.
system.tol2bus.snoop_filter.tot_requests         2674                       # Total number of requests made to the snoop filter.
system.tol2bus.snoop_filter.tot_snoops              0                       # Total number of snoops made to the snoop filter.
system.membus.trans_dist::ReadResp               1017                       # Transaction distribution
system.membus.trans_dist::ReadExReq               168                       # Transaction distribution
system.membus.trans_dist::ReadExResp              168                       # Transaction distribution
system.membus.trans_dist::ReadSharedReq          1018                       # Transaction distribution
system.membus.trans_dist::InvalidateReq            56                       # Transaction distribution
system.membus.pkt_count_system.l2.mem_side::system.mem_ctrls.port         2427                       # Packet count per connected master and slave (bytes)
system.membus.pkt_count::total                   2427                       # Packet count per connected master and slave (bytes)
system.membus.pkt_size_system.l2.mem_side::system.mem_ctrls.port        75840                       # Cumulative packet size per connected master and slave (bytes)
system.membus.pkt_size::total                   75840                       # Cumulative packet size per connected master and slave (bytes)
system.membus.snoops                                0                       # Total snoops (count)
system.membus.snoopTraffic                          0                       # Total snoop traffic (bytes)
system.membus.snoop_fanout::samples              1242                       # Request fanout histogram
system.membus.snoop_fanout::mean                    0                       # Request fanout histogram
system.membus.snoop_fanout::stdev                   0                       # Request fanout histogram
system.membus.snoop_fanout::underflows              0      0.00%      0.00% # Request fanout histogram
system.membus.snoop_fanout::0                    1242    100.00%    100.00% # Request fanout histogram
system.membus.snoop_fanout::1                       0      0.00%    100.00% # Request fanout histogram
system.membus.snoop_fanout::overflows               0      0.00%    100.00% # Request fanout histogram
system.membus.snoop_fanout::min_value               0                       # Request fanout histogram
system.membus.snoop_fanout::max_value               0                       # Request fanout histogram
system.membus.snoop_fanout::total                1242                       # Request fanout histogram
system.membus.reqLayer0.occupancy             1540500                       # Layer occupancy (ticks)
system.membus.reqLayer0.utilization               2.6                       # Layer utilization (%)
system.membus.respLayer1.occupancy            6265500                       # Layer occupancy (ticks)
system.membus.respLayer1.utilization             10.6                       # Layer utilization (%)
system.membus.power_state.pwrStateResidencyTicks::UNDEFINED     59369500                       # Cumulative time (in ticks) in various power states
system.tol2bus.trans_dist::ReadResp              1360                       # Transaction distribution
system.tol2bus.trans_dist::WritebackClean         1086                       # Transaction distribution
system.tol2bus.trans_dist::CleanEvict               3                       # Transaction distribution
system.tol2bus.trans_dist::ReadExReq              168                       # Transaction distribution
system.tol2bus.trans_dist::ReadExResp             168                       # Transaction distribution
system.tol2bus.trans_dist::ReadCleanReq          1215                       # Transaction distribution
system.tol2bus.trans_dist::ReadSharedReq          146                       # Transaction distribution
system.tol2bus.trans_dist::InvalidateReq           56                       # Transaction distribution
system.tol2bus.trans_dist::InvalidateResp           56                       # Transaction distribution
system.tol2bus.pkt_count_system.cpu.icache.mem_side::system.l2.cpu_side         3515                       # Packet count per connected master and slave (bytes)
system.tol2bus.pkt_count_system.cpu.dcache.mem_side::system.l2.cpu_side          743                       # Packet count per connected master and slave (bytes)
system.tol2bus.pkt_count::total                  4258                       # Packet count per connected master and slave (bytes)
system.tol2bus.pkt_size_system.cpu.icache.mem_side::system.l2.cpu_side       147200                       # Cumulative packet size per connected master and slave (bytes)
system.tol2bus.pkt_size_system.cpu.dcache.mem_side::system.l2.cpu_side        20096                       # Cumulative packet size per connected master and slave (bytes)
system.tol2bus.pkt_size::total                 167296                       # Cumulative packet size per connected master and slave (bytes)
system.tol2bus.snoops                               0                       # Total snoops (count)
system.tol2bus.snoopTraffic                         0                       # Total snoop traffic (bytes)
system.tol2bus.snoop_fanout::samples             1585                       # Request fanout histogram
system.tol2bus.snoop_fanout::mean            0.001893                       # Request fanout histogram
system.tol2bus.snoop_fanout::stdev           0.043478                       # Request fanout histogram
system.tol2bus.snoop_fanout::underflows             0      0.00%      0.00% # Request fanout histogram
system.tol2bus.snoop_fanout::0                   1582     99.81%     99.81% # Request fanout histogram
system.tol2bus.snoop_fanout::1                      3      0.19%    100.00% # Request fanout histogram
system.tol2bus.snoop_fanout::2                      0      0.00%    100.00% # Request fanout histogram
system.tol2bus.snoop_fanout::overflows              0      0.00%    100.00% # Request fanout histogram
system.tol2bus.snoop_fanout::min_value              0                       # Request fanout histogram
system.tol2bus.snoop_fanout::max_value              1                       # Request fanout histogram
system.tol2bus.snoop_fanout::total               1585                       # Request fanout histogram
system.tol2bus.reqLayer0.occupancy            2423000                       # Layer occupancy (ticks)
system.tol2bus.reqLayer0.utilization              4.1                       # Layer utilization (%)
system.tol2bus.respLayer1.occupancy            499000                       # Layer occupancy (ticks)
system.tol2bus.respLayer1.utilization             0.8                       # Layer utilization (%)
system.tol2bus.respLayer0.occupancy           1821000                       # Layer occupancy (ticks)
system.tol2bus.respLayer0.utilization             3.1                       # Layer utilization (%)
system.tol2bus.power_state.pwrStateResidencyTicks::UNDEFINED     59369500                       # Cumulative time (in ticks) in various power states
system.voltage_domain.voltage                       1                       # Voltage in Volts
system.clk_domain.clock                          1000                       # Clock period in ticks
system.l2.demand_hits::.cpu.inst                  341                       # number of demand (read+write) hits
system.l2.demand_hits::.cpu.data                    2                       # number of demand (read+write) hits
system.l2.demand_hits::total                      343                       # number of demand (read+write) hits
system.l2.overall_hits::.cpu.inst                 341                       # number of overall hits
system.l2.overall_hits::.cpu.data                   2                       # number of overall hits
system.l2.overall_hits::total                     343                       # number of overall hits
system.l2.demand_misses::.cpu.inst                874                       # number of demand (read+write) misses
system.l2.demand_misses::.cpu.data                312                       # number of demand (read+write) misses
system.l2.demand_misses::total                   1186                       # number of demand (read+write) misses
system.l2.overall_misses::.cpu.inst               874                       # number of overall misses
system.l2.overall_misses::.cpu.data               312                       # number of overall misses
system.l2.overall_misses::total                  1186                       # number of overall misses
system.l2.demand_miss_latency::.cpu.inst     67687500                       # number of demand (read+write) miss cycles
system.l2.demand_miss_latency::.cpu.data     25895500                       # number of demand (read+write) miss cycles
system.l2.demand_miss_latency::total         93583000                       # number of demand (read+write) miss cycles
system.l2.overall_miss_latency::.cpu.inst     67687500                       # number of overall miss cycles
system.l2.overall_miss_latency::.cpu.data     25895500                       # number of overall miss cycles
system.l2.overall_miss_latency::total        93583000                       # number of overall miss cycles
system.l2.demand_accesses::.cpu.inst             1215                       # number of demand (read+write) accesses
system.l2.demand_accesses::.cpu.data              314                       # number of demand (read+write) accesses
system.l2.demand_accesses::total                 1529                       # number of demand (read+write) accesses
system.l2.overall_accesses::.cpu.inst            1215                       # number of overall (read+write) accesses
system.l2.overall_accesses::.cpu.data             314                       # number of overall (read+write) accesses
system.l2.overall_accesses::total                1529                       # number of overall (read+write) accesses
system.l2.demand_miss_rate::.cpu.inst        0.719342                       # miss rate for demand accesses
system.l2.demand_miss_rate::.cpu.data        0.993631                       # miss rate for demand accesses
system.l2.demand_miss_rate::total            0.775670                       # miss rate for demand accesses
system.l2.overall_miss_rate::.cpu.inst       0.719342                       # miss rate for overall accesses
system.l2.overall_miss_rate::.cpu.data       0.993631                       # miss rate for overall accesses
system.l2.overall_miss_rate::total           0.775670                       # miss rate for overall accesses
system.l2.demand_avg_miss_latency::.cpu.inst 77445.652174                       # average overall miss latency
system.l2.demand_avg_miss_latency::.cpu.data 82998.397436                       # average overall miss latency
system.l2.demand_avg_miss_latency::total 78906.408094                       # average overall miss latency
system.l2.overall_avg_miss_latency::.cpu.inst 77445.652174                       # average overall miss latency
system.l2.overall_avg_miss_latency::.cpu.data 82998.397436                       # average overall miss latency
system.l2.overall_avg_miss_latency::total 78906.408094                       # average overall miss latency
system.l2.blocked_cycles::no_mshrs                  0                       # number of cycles access was blocked
system.l2.blocked_cycles::no_targets                0                       # number of cycles access was blocked
system.l2.blocked::no_mshrs                         0                       # number of cycles access was blocked
system.l2.blocked::no_targets                       0                       # number of cycles access was blocked
system.l2.avg_blocked_cycles::no_mshrs            nan                       # average number of cycles each access was blocked
system.l2.avg_blocked_cycles::no_targets          nan                       # average number of cycles each access was blocked
system.l2.demand_mshr_misses::.cpu.inst           874                       # number of demand (read+write) MSHR misses
system.l2.demand_mshr_misses::.cpu.data           312                       # number of demand (read+write) MSHR misses
system.l2.demand_mshr_misses::total              1186                       # number of demand (read+write) MSHR misses
system.l2.overall_mshr_misses::.cpu.inst          874                       # number of overall MSHR misses
system.l2.overall_mshr_misses::.cpu.data          312                       # number of overall MSHR misses
system.l2.overall_mshr_misses::total             1186                       # number of overall MSHR misses
system.l2.demand_mshr_miss_latency::.cpu.inst     58957500                       # number of demand (read+write) MSHR miss cycles
system.l2.demand_mshr_miss_latency::.cpu.data     22775500                       # number of demand (read+write) MSHR miss cycles
system.l2.demand_mshr_miss_latency::total     81733000                       # number of demand (read+write) MSHR miss cycles
system.l2.overall_mshr_miss_latency::.cpu.inst     58957500                       # number of overall MSHR miss cycles
system.l2.overall_mshr_miss_latency::.cpu.data     22775500                       # number of overall MSHR miss cycles
system.l2.overall_mshr_miss_latency::total     81733000                       # number of overall MSHR miss cycles
system.l2.demand_mshr_miss_rate::.cpu.inst     0.719342                       # mshr miss rate for demand accesses
system.l2.demand_mshr_miss_rate::.cpu.data     0.993631                       # mshr miss rate for demand accesses
system.l2.demand_mshr_miss_rate::total       0.775670                       # mshr miss rate for demand accesses
system.l2.overall_mshr_miss_rate::.cpu.inst     0.719342                       # mshr miss rate for overall accesses
system.l2.overall_mshr_miss_rate::.cpu.data     0.993631                       # mshr miss rate for overall accesses
system.l2.overall_mshr_miss_rate::total      0.775670                       # mshr miss rate for overall accesses
system.l2.demand_avg_mshr_miss_latency::.cpu.inst 67457.093822                       # average overall mshr miss latency
system.l2.demand_avg_mshr_miss_latency::.cpu.data 72998.397436                       # average overall mshr miss latency
system.l2.demand_avg_mshr_miss_latency::total 68914.839798                       # average overall mshr miss latency
system.l2.overall_avg_mshr_miss_latency::.cpu.inst 67457.093822                       # average overall mshr miss latency
system.l2.overall_avg_mshr_miss_latency::.cpu.data 72998.397436                       # average overall mshr miss latency
system.l2.overall_avg_mshr_miss_latency::total 68914.839798                       # average overall mshr miss latency
system.l2.replacements                              0                       # number of replacements
system.l2.WritebackClean_hits::.writebacks         1084                       # number of WritebackClean hits
system.l2.WritebackClean_hits::total             1084                       # number of WritebackClean hits
system.l2.WritebackClean_accesses::.writebacks         1084                       # number of WritebackClean accesses(hits+misses)
system.l2.WritebackClean_accesses::total         1084                       # number of WritebackClean accesses(hits+misses)
system.l2.ReadExReq_misses::.cpu.data             168                       # number of ReadExReq misses
system.l2.ReadExReq_misses::total                 168                       # number of ReadExReq misses
system.l2.ReadExReq_miss_latency::.cpu.data     13625500                       # number of ReadExReq miss cycles
system.l2.ReadExReq_miss_latency::total      13625500                       # number of ReadExReq miss cycles
system.l2.ReadExReq_accesses::.cpu.data           168                       # number of ReadExReq accesses(hits+misses)
system.l2.ReadExReq_accesses::total               168                       # number of ReadExReq accesses(hits+misses)
system.l2.ReadExReq_miss_rate::.cpu.data            1                       # miss rate for ReadExReq accesses
system.l2.ReadExReq_miss_rate::total                1                       # miss rate for ReadExReq accesses
system.l2.ReadExReq_avg_miss_latency::.cpu.data 81104.166667                       # average ReadExReq miss latency
system.l2.ReadExReq_avg_miss_latency::total 81104.166667                       # average ReadExReq miss latency
system.l2.ReadExReq_mshr_misses::.cpu.data          168                       # number of ReadExReq MSHR misses
system.l2.ReadExReq_mshr_misses::total            168                       # number of ReadExReq MSHR misses
system.l2.ReadExReq_mshr_miss_latency::.cpu.data     11945500                       # number of ReadExReq MSHR miss cycles
system.l2.ReadExReq_mshr_miss_latency::total     11945500                       # number of ReadExReq MSHR miss cycles
system.l2.ReadExReq_mshr_miss_rate::.cpu.data            1                       # mshr miss rate for ReadExReq accesses
system.l2.ReadExReq_mshr_miss_rate::total            1                       # mshr miss rate for ReadExReq accesses
system.l2.ReadExReq_avg_mshr_miss_latency::.cpu.data 71104.166667                       # average ReadExReq mshr miss latency
system.l2.ReadExReq_avg_mshr_miss_latency::total 71104.166667                       # average ReadExReq mshr miss latency
system.l2.ReadCleanReq_hits::.cpu.inst            341                       # number of ReadCleanReq hits
system.l2.ReadCleanReq_hits::total                341                       # number of ReadCleanReq hits
system.l2.ReadCleanReq_misses::.cpu.inst          874                       # number of ReadCleanReq misses
system.l2.ReadCleanReq_misses::total              874                       # number of ReadCleanReq misses
system.l2.ReadCleanReq_miss_latency::.cpu.inst     67687500                       # number of ReadCleanReq miss cycles
system.l2.ReadCleanReq_miss_latency::total     67687500                       # number of ReadCleanReq miss cycles
system.l2.ReadCleanReq_accesses::.cpu.inst         1215                       # number of ReadCleanReq accesses(hits+misses)
system.l2.ReadCleanReq_accesses::total           1215                       # number of ReadCleanReq accesses(hits+misses)
system.l2.ReadCleanReq_miss_rate::.cpu.inst     0.719342                       # miss rate for ReadCleanReq accesses
system.l2.ReadCleanReq_miss_rate::total      0.719342                       # miss rate for ReadCleanReq accesses
system.l2.ReadCleanReq_avg_miss_latency::.cpu.inst 77445.652174                       # average ReadCleanReq miss latency
system.l2.ReadCleanReq_avg_miss_latency::total 77445.652174                       # average ReadCleanReq miss latency
system.l2.ReadCleanReq_mshr_misses::.cpu.inst          874                       # number of ReadCleanReq MSHR misses
system.l2.ReadCleanReq_mshr_misses::total          874                       # number of ReadCleanReq MSHR misses
system.l2.ReadCleanReq_mshr_miss_latency::.cpu.inst     58957500                       # number of ReadCleanReq MSHR miss cycles
system.l2.ReadCleanReq_mshr_miss_latency::total     58957500                       # number of ReadCleanReq MSHR miss cycles
system.l2.ReadCleanReq_mshr_miss_rate::.cpu.inst     0.719342                       # mshr miss rate for ReadCleanReq accesses
system.l2.ReadCleanReq_mshr_miss_rate::total     0.719342                       # mshr miss rate for ReadCleanReq accesses
system.l2.ReadCleanReq_avg_mshr_miss_latency::.cpu.inst 67457.093822                       # average ReadCleanReq mshr miss latency
system.l2.ReadCleanReq_avg_mshr_miss_latency::total 67457.093822                       # average ReadCleanReq mshr miss latency
system.l2.ReadSharedReq_hits::.cpu.data             2                       # number of ReadSharedReq hits
system.l2.ReadSharedReq_hits::total                 2                       # number of ReadSharedReq hits
system.l2.ReadSharedReq_misses::.cpu.data          144                       # number of ReadSharedReq misses
system.l2.ReadSharedReq_misses::total             144                       # number of ReadSharedReq misses
system.l2.ReadSharedReq_miss_latency::.cpu.data     12270000                       # number of ReadSharedReq miss cycles
system.l2.ReadSharedReq_miss_latency::total     12270000                       # number of ReadSharedReq miss cycles
system.l2.ReadSharedReq_accesses::.cpu.data          146                       # number of ReadSharedReq accesses(hits+misses)
[...]
system.cpu.dcache.overall_misses::.cpu.data         1228                       # number of overall misses
system.cpu.dcache.overall_misses::total          1228                       # number of overall misses
system.cpu.dcache.demand_miss_latency::.cpu.data     82169433                       # number of demand (read+write) miss cycles
system.cpu.dcache.demand_miss_latency::total     82169433                       # number of demand (read+write) miss cycles
system.cpu.dcache.overall_miss_latency::.cpu.data     82169433                       # number of overall miss cycles
system.cpu.dcache.overall_miss_latency::total     82169433                       # number of overall miss cycles
system.cpu.dcache.demand_accesses::.cpu.data        10078                       # number of demand (read+write) accesses
system.cpu.dcache.demand_accesses::total        10078                       # number of demand (read+write) accesses
system.cpu.dcache.overall_accesses::.cpu.data        10103                       # number of overall (read+write) accesses
system.cpu.dcache.overall_accesses::total        10103                       # number of overall (read+write) accesses
system.cpu.dcache.demand_miss_rate::.cpu.data     0.121453                       # miss rate for demand accesses
system.cpu.dcache.demand_miss_rate::total     0.121453                       # miss rate for demand accesses
system.cpu.dcache.overall_miss_rate::.cpu.data     0.121548                       # miss rate for overall accesses
system.cpu.dcache.overall_miss_rate::total     0.121548                       # miss rate for overall accesses
system.cpu.dcache.demand_avg_miss_latency::.cpu.data 67131.889706                       # average overall miss latency
system.cpu.dcache.demand_avg_miss_latency::total 67131.889706                       # average overall miss latency
system.cpu.dcache.overall_avg_miss_latency::.cpu.data 66913.219055                       # average overall miss latency
system.cpu.dcache.overall_avg_miss_latency::total 66913.219055                       # average overall miss latency
system.cpu.dcache.blocked_cycles::no_mshrs         3097                       # number of cycles access was blocked
system.cpu.dcache.blocked_cycles::no_targets            0                       # number of cycles access was blocked
system.cpu.dcache.blocked::no_mshrs                93                       # number of cycles access was blocked
system.cpu.dcache.blocked::no_targets               0                       # number of cycles access was blocked
system.cpu.dcache.avg_blocked_cycles::no_mshrs    33.301075                       # average number of cycles each access was blocked
system.cpu.dcache.avg_blocked_cycles::no_targets          nan                       # average number of cycles each access was blocked
system.cpu.dcache.demand_mshr_hits::.cpu.data          859                       # number of demand (read+write) MSHR hits
system.cpu.dcache.demand_mshr_hits::total          859                       # number of demand (read+write) MSHR hits
system.cpu.dcache.overall_mshr_hits::.cpu.data          859                       # number of overall MSHR hits
system.cpu.dcache.overall_mshr_hits::total          859                       # number of overall MSHR hits
system.cpu.dcache.demand_mshr_misses::.cpu.data          365                       # number of demand (read+write) MSHR misses
system.cpu.dcache.demand_mshr_misses::total          365                       # number of demand (read+write) MSHR misses
system.cpu.dcache.overall_mshr_misses::.cpu.data          369                       # number of overall MSHR misses
system.cpu.dcache.overall_mshr_misses::total          369                       # number of overall MSHR misses
system.cpu.dcache.demand_mshr_miss_latency::.cpu.data     27364464                       # number of demand (read+write) MSHR miss cycles
system.cpu.dcache.demand_mshr_miss_latency::total     27364464                       # number of demand (read+write) MSHR miss cycles
system.cpu.dcache.overall_mshr_miss_latency::.cpu.data     27766464                       # number of overall MSHR miss cycles
system.cpu.dcache.overall_mshr_miss_latency::total     27766464                       # number of overall MSHR miss cycles
system.cpu.dcache.demand_mshr_miss_rate::.cpu.data     0.036218                       # mshr miss rate for demand accesses
system.cpu.dcache.demand_mshr_miss_rate::total     0.036218                       # mshr miss rate for demand accesses
system.cpu.dcache.overall_mshr_miss_rate::.cpu.data     0.036524                       # mshr miss rate for overall accesses
system.cpu.dcache.overall_mshr_miss_rate::total     0.036524                       # mshr miss rate for overall accesses
system.cpu.dcache.demand_avg_mshr_miss_latency::.cpu.data 74971.134247                       # average overall mshr miss latency
system.cpu.dcache.demand_avg_mshr_miss_latency::total 74971.134247                       # average overall mshr miss latency
system.cpu.dcache.overall_avg_mshr_miss_latency::.cpu.data 75247.869919                       # average overall mshr miss latency
system.cpu.dcache.overall_avg_mshr_miss_latency::total 75247.869919                       # average overall mshr miss latency
system.cpu.dcache.replacements                      3                       # number of replacements
system.cpu.dcache.ReadReq_hits::.cpu.data         5120                       # number of ReadReq hits
system.cpu.dcache.ReadReq_hits::total            5120                       # number of ReadReq hits
system.cpu.dcache.ReadReq_misses::.cpu.data          328                       # number of ReadReq misses
system.cpu.dcache.ReadReq_misses::total           328                       # number of ReadReq misses
system.cpu.dcache.ReadReq_miss_latency::.cpu.data     22971500                       # number of ReadReq miss cycles
system.cpu.dcache.ReadReq_miss_latency::total     22971500                       # number of ReadReq miss cycles
system.cpu.dcache.ReadReq_accesses::.cpu.data         5448                       # number of ReadReq accesses(hits+misses)
system.cpu.dcache.ReadReq_accesses::total         5448                       # number of ReadReq accesses(hits+misses)
system.cpu.dcache.ReadReq_miss_rate::.cpu.data     0.060206                       # miss rate for ReadReq accesses
system.cpu.dcache.ReadReq_miss_rate::total     0.060206                       # miss rate for ReadReq accesses
system.cpu.dcache.ReadReq_avg_miss_latency::.cpu.data 70035.060976                       # average ReadReq miss latency
system.cpu.dcache.ReadReq_avg_miss_latency::total 70035.060976                       # average ReadReq miss latency
system.cpu.dcache.ReadReq_mshr_hits::.cpu.data          187                       # number of ReadReq MSHR hits
system.cpu.dcache.ReadReq_mshr_hits::total          187                       # number of ReadReq MSHR hits
system.cpu.dcache.ReadReq_mshr_misses::.cpu.data          141                       # number of ReadReq MSHR misses
system.cpu.dcache.ReadReq_mshr_misses::total          141                       # number of ReadReq MSHR misses
system.cpu.dcache.ReadReq_mshr_miss_latency::.cpu.data     11758500                       # number of ReadReq MSHR miss cycles
system.cpu.dcache.ReadReq_mshr_miss_latency::total     11758500                       # number of ReadReq MSHR miss cycles
system.cpu.dcache.ReadReq_mshr_miss_rate::.cpu.data     0.025881                       # mshr miss rate for ReadReq accesses
system.cpu.dcache.ReadReq_mshr_miss_rate::total     0.025881                       # mshr miss rate for ReadReq accesses
system.cpu.dcache.ReadReq_avg_mshr_miss_latency::.cpu.data 83393.617021                       # average ReadReq mshr miss latency
system.cpu.dcache.ReadReq_avg_mshr_miss_latency::total 83393.617021                       # average ReadReq mshr miss latency
system.cpu.dcache.WriteReq_hits::.cpu.data         3734                       # number of WriteReq hits
system.cpu.dcache.WriteReq_hits::total           3734                       # number of WriteReq hits
system.cpu.dcache.WriteReq_misses::.cpu.data          845                       # number of WriteReq misses
system.cpu.dcache.WriteReq_misses::total          845                       # number of WriteReq misses
system.cpu.dcache.WriteReq_miss_latency::.cpu.data     57577461                       # number of WriteReq miss cycles
system.cpu.dcache.WriteReq_miss_latency::total     57577461                       # number of WriteReq miss cycles
system.cpu.dcache.WriteReq_accesses::.cpu.data         4579                       # number of WriteReq accesses(hits+misses)
system.cpu.dcache.WriteReq_accesses::total         4579                       # number of WriteReq accesses(hits+misses)
system.cpu.dcache.WriteReq_miss_rate::.cpu.data     0.184538                       # miss rate for WriteReq accesses
system.cpu.dcache.WriteReq_miss_rate::total     0.184538                       # miss rate for WriteReq accesses
system.cpu.dcache.WriteReq_avg_miss_latency::.cpu.data 68139.007101                       # average WriteReq miss latency
system.cpu.dcache.WriteReq_avg_miss_latency::total 68139.007101                       # average WriteReq miss latency
system.cpu.dcache.WriteReq_mshr_hits::.cpu.data          672                       # number of WriteReq MSHR hits
system.cpu.dcache.WriteReq_mshr_hits::total          672                       # number of WriteReq MSHR hits
system.cpu.dcache.WriteReq_mshr_misses::.cpu.data          173                       # number of WriteReq MSHR misses
system.cpu.dcache.WriteReq_mshr_misses::total          173                       # number of WriteReq MSHR misses
system.cpu.dcache.WriteReq_mshr_miss_latency::.cpu.data     14036492                       # number of WriteReq MSHR miss cycles
system.cpu.dcache.WriteReq_mshr_miss_latency::total     14036492                       # number of WriteReq MSHR miss cycles
system.cpu.dcache.WriteReq_mshr_miss_rate::.cpu.data     0.037781                       # mshr miss rate for WriteReq accesses
system.cpu.dcache.WriteReq_mshr_miss_rate::total     0.037781                       # mshr miss rate for WriteReq accesses
system.cpu.dcache.WriteReq_avg_mshr_miss_latency::.cpu.data 81135.791908                       # average WriteReq mshr miss latency
system.cpu.dcache.WriteReq_avg_mshr_miss_latency::total 81135.791908                       # average WriteReq mshr miss latency
system.cpu.dcache.SoftPFReq_hits::.cpu.data           21                       # number of SoftPFReq hits
system.cpu.dcache.SoftPFReq_hits::total            21                       # number of SoftPFReq hits
system.cpu.dcache.SoftPFReq_misses::.cpu.data            4                       # number of SoftPFReq misses
system.cpu.dcache.SoftPFReq_misses::total            4                       # number of SoftPFReq misses
system.cpu.dcache.SoftPFReq_accesses::.cpu.data           25                       # number of SoftPFReq accesses(hits+misses)
system.cpu.dcache.SoftPFReq_accesses::total           25                       # number of SoftPFReq accesses(hits+misses)
system.cpu.dcache.SoftPFReq_miss_rate::.cpu.data     0.160000                       # miss rate for SoftPFReq accesses
system.cpu.dcache.SoftPFReq_miss_rate::total     0.160000                       # miss rate for SoftPFReq accesses
system.cpu.dcache.SoftPFReq_mshr_misses::.cpu.data            4                       # number of SoftPFReq MSHR misses
system.cpu.dcache.SoftPFReq_mshr_misses::total            4                       # number of SoftPFReq MSHR misses
system.cpu.dcache.SoftPFReq_mshr_miss_latency::.cpu.data       402000                       # number of SoftPFReq MSHR miss cycles
system.cpu.dcache.SoftPFReq_mshr_miss_latency::total       402000                       # number of SoftPFReq MSHR miss cycles
system.cpu.dcache.SoftPFReq_mshr_miss_rate::.cpu.data     0.160000                       # mshr miss rate for SoftPFReq accesses
system.cpu.dcache.SoftPFReq_mshr_miss_rate::total     0.160000                       # mshr miss rate for SoftPFReq accesses
system.cpu.dcache.SoftPFReq_avg_mshr_miss_latency::.cpu.data       100500                       # average SoftPFReq mshr miss latency
system.cpu.dcache.SoftPFReq_avg_mshr_miss_latency::total       100500                       # average SoftPFReq mshr miss latency
system.cpu.dcache.WriteLineReq_misses::.cpu.data           51                       # number of WriteLineReq misses
system.cpu.dcache.WriteLineReq_misses::total           51                       # number of WriteLineReq misses
system.cpu.dcache.WriteLineReq_miss_latency::.cpu.data      1620472                       # number of WriteLineReq miss cycles
system.cpu.dcache.WriteLineReq_miss_latency::total      1620472                       # number of WriteLineReq miss cycles
system.cpu.dcache.WriteLineReq_accesses::.cpu.data           51                       # number of WriteLineReq accesses(hits+misses)
system.cpu.dcache.WriteLineReq_accesses::total           51                       # number of WriteLineReq accesses(hits+misses)
system.cpu.dcache.WriteLineReq_miss_rate::.cpu.data            1                       # miss rate for WriteLineReq accesses
system.cpu.dcache.WriteLineReq_miss_rate::total            1                       # miss rate for WriteLineReq accesses
system.cpu.dcache.WriteLineReq_avg_miss_latency::.cpu.data 31773.960784                       # average WriteLineReq miss latency
system.cpu.dcache.WriteLineReq_avg_miss_latency::total 31773.960784                       # average WriteLineReq miss latency
system.cpu.dcache.WriteLineReq_mshr_misses::.cpu.data           51                       # number of WriteLineReq MSHR misses
system.cpu.dcache.WriteLineReq_mshr_misses::total           51                       # number of WriteLineReq MSHR misses
system.cpu.dcache.WriteLineReq_mshr_miss_latency::.cpu.data      1569472                       # number of WriteLineReq MSHR miss cycles
system.cpu.dcache.WriteLineReq_mshr_miss_latency::total      1569472                       # number of WriteLineReq MSHR miss cycles
system.cpu.dcache.WriteLineReq_mshr_miss_rate::.cpu.data            1                       # mshr miss rate for WriteLineReq accesses
system.cpu.dcache.WriteLineReq_mshr_miss_rate::total            1                       # mshr miss rate for WriteLineReq accesses
system.cpu.dcache.WriteLineReq_avg_mshr_miss_latency::.cpu.data 30773.960784                       # average WriteLineReq mshr miss latency
system.cpu.dcache.WriteLineReq_avg_mshr_miss_latency::total 30773.960784                       # average WriteLineReq mshr miss latency
system.cpu.dcache.LoadLockedReq_hits::.cpu.data           49                       # number of LoadLockedReq hits
system.cpu.dcache.LoadLockedReq_hits::total           49                       # number of LoadLockedReq hits
system.cpu.dcache.LoadLockedReq_misses::.cpu.data            1                       # number of LoadLockedReq misses
system.cpu.dcache.LoadLockedReq_misses::total            1                       # number of LoadLockedReq misses
system.cpu.dcache.LoadLockedReq_miss_latency::.cpu.data       355000                       # number of LoadLockedReq miss cycles
system.cpu.dcache.LoadLockedReq_miss_latency::total       355000                       # number of LoadLockedReq miss cycles
system.cpu.dcache.LoadLockedReq_accesses::.cpu.data           50                       # number of LoadLockedReq accesses(hits+misses)
system.cpu.dcache.LoadLockedReq_accesses::total           50                       # number of LoadLockedReq accesses(hits+misses)
system.cpu.dcache.LoadLockedReq_miss_rate::.cpu.data     0.020000                       # miss rate for LoadLockedReq accesses
system.cpu.dcache.LoadLockedReq_miss_rate::total     0.020000                       # miss rate for LoadLockedReq accesses
system.cpu.dcache.LoadLockedReq_avg_miss_latency::.cpu.data       355000                       # average LoadLockedReq miss latency
system.cpu.dcache.LoadLockedReq_avg_miss_latency::total       355000                       # average LoadLockedReq miss latency
system.cpu.dcache.LoadLockedReq_mshr_misses::.cpu.data            1                       # number of LoadLockedReq MSHR misses
system.cpu.dcache.LoadLockedReq_mshr_misses::total            1                       # number of LoadLockedReq MSHR misses
system.cpu.dcache.LoadLockedReq_mshr_miss_latency::.cpu.data       354000                       # number of LoadLockedReq MSHR miss cycles
system.cpu.dcache.LoadLockedReq_mshr_miss_latency::total       354000                       # number of LoadLockedReq MSHR miss cycles
system.cpu.dcache.LoadLockedReq_mshr_miss_rate::.cpu.data     0.020000                       # mshr miss rate for LoadLockedReq accesses
system.cpu.dcache.LoadLockedReq_mshr_miss_rate::total     0.020000                       # mshr miss rate for LoadLockedReq accesses
system.cpu.dcache.LoadLockedReq_avg_mshr_miss_latency::.cpu.data       354000                       # average LoadLockedReq mshr miss latency
system.cpu.dcache.LoadLockedReq_avg_mshr_miss_latency::total       354000                       # average LoadLockedReq mshr miss latency
system.cpu.dcache.StoreCondReq_hits::.cpu.data           36                       # number of StoreCondReq hits
system.cpu.dcache.StoreCondReq_hits::total           36                       # number of StoreCondReq hits
system.cpu.dcache.StoreCondReq_accesses::.cpu.data           36                       # number of StoreCondReq accesses(hits+misses)
system.cpu.dcache.StoreCondReq_accesses::total           36                       # number of StoreCondReq accesses(hits+misses)
system.cpu.dcache.power_state.pwrStateResidencyTicks::UNDEFINED     59369500                       # Cumulative time (in ticks) in various power states
system.cpu.dcache.tags.tagsinuse           240.472661                       # Cycle average of tags in use
system.cpu.dcache.tags.total_refs                9330                       # Total number of references to valid blocks.
system.cpu.dcache.tags.sampled_refs               370                       # Sample count of references to valid blocks.
system.cpu.dcache.tags.avg_refs             25.216216                       # Average number of references to valid blocks.
system.cpu.dcache.tags.warmup_cycle            176500                       # Cycle when the warmup percentage was hit.
system.cpu.dcache.tags.occ_blocks::.cpu.data   240.472661                       # Average occupied blocks per requestor
system.cpu.dcache.tags.occ_percent::.cpu.data     0.234837                       # Average percentage of cache occupancy
system.cpu.dcache.tags.occ_percent::total     0.234837                       # Average percentage of cache occupancy
system.cpu.dcache.tags.occ_task_id_blocks::1024          367                       # Occupied blocks per task id
system.cpu.dcache.tags.age_task_id_blocks_1024::0           25                       # Occupied blocks per task id
system.cpu.dcache.tags.age_task_id_blocks_1024::1          342                       # Occupied blocks per task id
system.cpu.dcache.tags.occ_task_id_percent::1024     0.358398                       # Percentage of cache occupancy per task id
system.cpu.dcache.tags.tag_accesses             20748                       # Number of tag accesses
system.cpu.dcache.tags.data_accesses            20748                       # Number of data accesses
system.cpu.dcache.tags.power_state.pwrStateResidencyTicks::UNDEFINED     59369500                       # Cumulative time (in ticks) in various power states
system.cpu.power_state.pwrStateResidencyTicks::ON     59369500                       # Cumulative time (in ticks) in various power states

---------- End Simulation Statistics   ----------
