
---------- Begin Simulation Statistics ----------
final_tick                                   63939500                       # Number of ticks from beginning of simulation (restored from checkpoints and never reset)
host_inst_rate                                  30395                       # Simulator instruction rate (inst/s)
host_mem_usage                                 866512                       # Number of bytes of host memory used
host_op_rate                                    37111                       # Simulator op (including micro ops) rate (op/s)
host_seconds                                     0.97                       # Real time elapsed on the host
host_tick_rate                               66188159                       # Simulator tick rate (ticks/s)
sim_freq                                 1000000000000                       # Frequency of simulated ticks
sim_insts                                       29355                       # Number of instructions simulated
sim_ops                                         35849                       # Number of ops (including micro ops) simulated
sim_seconds                                  0.000064                       # Number of seconds simulated
sim_ticks                                    63939500                       # Number of ticks simulated
system.cpu.branchPred.BTBCorrect                    0                       # Number of correct BTB predictions (this stat may not work properly.
system.cpu.branchPred.BTBHitPct             68.501684                       # BTB Hit Percentage
system.cpu.branchPred.BTBHits                    4069                       # Number of BTB hits
system.cpu.branchPred.BTBLookups                 5940                       # Number of BTB lookups
system.cpu.branchPred.RASInCorrect                  8                       # Number of incorrect RAS predictions.
system.cpu.branchPred.condIncorrect              1562                       # Number of conditional branches incorrect
system.cpu.branchPred.condPredicted              9427                       # Number of conditional branches predicted
system.cpu.branchPred.indirectHits                 50                       # Number of indirect target hits.
system.cpu.branchPred.indirectLookups             479                       # Number of indirect predictor lookups.
system.cpu.branchPred.indirectMisses              429                       # Number of indirect misses.
system.cpu.branchPred.lookups                   13343                       # Number of BP lookups
system.cpu.branchPred.usedRAS                    1133                       # Number of times the RAS was used to get a target.
system.cpu.branchPredindirectMispredicted          126                       # Number of mispredicted indirect branches.
system.cpu.cc_regfile_reads                     10720                       # number of cc regfile reads
system.cpu.cc_regfile_writes                    10536                       # number of cc regfile writes
system.cpu.commit.amos                              0                       # Number of atomic instructions committed
system.cpu.commit.branchMispredicts              1056                       # The number of times a branch was mispredicted
system.cpu.commit.branches                       6765                       # Number of branches committed
system.cpu.commit.bw_lim_events                  1337                       # number cycles where commit BW limit reached
system.cpu.commit.commitNonSpecStalls              48                       # The number of times commit has been forced to stall to communicate backwards
system.cpu.commit.commitSquashedInsts           17365                       # The number of squashed insts skipped by commit
system.cpu.commit.committedInsts                29435                       # Number of instructions committed
system.cpu.commit.committedOps                  35929                       # Number of ops (including micro ops) committed
system.cpu.commit.committed_per_cycle::samples        49402                       # Number of insts commited each cycle
system.cpu.commit.committed_per_cycle::mean     0.727278                       # Number of insts commited each cycle
system.cpu.commit.committed_per_cycle::stdev     1.759770                       # Number of insts commited each cycle
system.cpu.commit.committed_per_cycle::underflows            0      0.00%      0.00% # Number of insts commited each cycle
system.cpu.commit.committed_per_cycle::0        37962     76.84%     76.84% # Number of insts commited each cycle
system.cpu.commit.committed_per_cycle::1         4165      8.43%     85.27% # Number of insts commited each cycle
system.cpu.commit.committed_per_cycle::2         2115      4.28%     89.56% # Number of insts commited each cycle
system.cpu.commit.committed_per_cycle::3         1295      2.62%     92.18% # Number of insts commited each cycle
system.cpu.commit.committed_per_cycle::4          903      1.83%     94.00% # Number of insts commited each cycle
system.cpu.commit.committed_per_cycle::5          818      1.66%     95.66% # Number of insts commited each cycle
system.cpu.commit.committed_per_cycle::6          398      0.81%     96.47% # Number of insts commited each cycle
system.cpu.commit.committed_per_cycle::7          409      0.83%     97.29% # Number of insts commited each cycle
system.cpu.commit.committed_per_cycle::8         1337      2.71%    100.00% # Number of insts commited each cycle
system.cpu.commit.committed_per_cycle::overflows            0      0.00%    100.00% # Number of insts commited each cycle
system.cpu.commit.committed_per_cycle::min_value            0                       # Number of insts commited each cycle
system.cpu.commit.committed_per_cycle::max_value            8                       # Number of insts commited each cycle
system.cpu.commit.committed_per_cycle::total        49402                       # Number of insts commited each cycle
system.cpu.commit.fp_insts                          0                       # Number of committed floating point instructions.
system.cpu.commit.function_calls                  609                       # Number of function calls committed.
system.cpu.commit.int_insts                     32730                       # Number of committed integer instructions.
system.cpu.commit.loads                          5438                       # Number of loads committed
system.cpu.commit.membars                          24                       # Number of memory barriers committed
system.cpu.commit.op_class_0::No_OpClass            7      0.02%      0.02% # Class of committed instruction
system.cpu.commit.op_class_0::IntAlu            24199     67.35%     67.37% # Class of committed instruction
system.cpu.commit.op_class_0::IntMult              53      0.15%     67.52% # Class of committed instruction
system.cpu.commit.op_class_0::IntDiv                6      0.02%     67.54% # Class of committed instruction
system.cpu.commit.op_class_0::FloatAdd              0      0.00%     67.54% # Class of committed instruction
system.cpu.commit.op_class_0::FloatCmp              0      0.00%     67.54% # Class of committed instruction
system.cpu.commit.op_class_0::FloatCvt              0      0.00%     67.54% # Class of committed instruction
system.cpu.commit.op_class_0::FloatMult             0      0.00%     67.54% # Class of committed instruction
system.cpu.commit.op_class_0::FloatMultAcc            0      0.00%     67.54% # Class of committed instruction
system.cpu.commit.op_class_0::FloatDiv              0      0.00%     67.54% # Class of committed instruction
system.cpu.commit.op_class_0::FloatMisc             0      0.00%     67.54% # Class of committed instruction
system.cpu.commit.op_class_0::FloatSqrt             0      0.00%     67.54% # Class of committed instruction
system.cpu.commit.op_class_0::SimdAdd              26      0.07%     67.61% # Class of committed instruction
system.cpu.commit.op_class_0::SimdAddAcc            0      0.00%     67.61% # Class of committed instruction
system.cpu.commit.op_class_0::SimdAlu              32      0.09%     67.70% # Class of committed instruction
system.cpu.commit.op_class_0::SimdCmp              28      0.08%     67.78% # Class of committed instruction
system.cpu.commit.op_class_0::SimdCvt               0      0.00%     67.78% # Class of committed instruction
system.cpu.commit.op_class_0::SimdMisc             38      0.11%     67.88% # Class of committed instruction
system.cpu.commit.op_class_0::SimdMult              0      0.00%     67.88% # Class of committed instruction
system.cpu.commit.op_class_0::SimdMultAcc            0      0.00%     67.88% # Class of committed instruction
system.cpu.commit.op_class_0::SimdShift             0      0.00%     67.88% # Class of committed instruction
system.cpu.commit.op_class_0::SimdShiftAcc            0      0.00%     67.88% # Class of committed instruction
system.cpu.commit.op_class_0::SimdDiv               0      0.00%     67.88% # Class of committed instruction
system.cpu.commit.op_class_0::SimdSqrt              0      0.00%     67.88% # Class of committed instruction
system.cpu.commit.op_class_0::SimdFloatAdd            0      0.00%     67.88% # Class of committed instruction
system.cpu.commit.op_class_0::SimdFloatAlu            0      0.00%     67.88% # Class of committed instruction
system.cpu.commit.op_class_0::SimdFloatCmp            0      0.00%     67.88% # Class of committed instruction
system.cpu.commit.op_class_0::SimdFloatCvt            0      0.00%     67.88% # Class of committed instruction
system.cpu.commit.op_class_0::SimdFloatDiv            0      0.00%     67.88% # Class of committed instruction
system.cpu.commit.op_class_0::SimdFloatMisc            0      0.00%     67.88% # Class of committed instruction
system.cpu.commit.op_class_0::SimdFloatMult            0      0.00%     67.88% # Class of committed instruction
system.cpu.commit.op_class_0::SimdFloatMultAcc            0      0.00%     67.88% # Class of committed instruction
system.cpu.commit.op_class_0::SimdFloatSqrt            0      0.00%     67.88% # Class of committed instruction
system.cpu.commit.op_class_0::SimdReduceAdd            0      0.00%     67.88% # Class of committed instruction
system.cpu.commit.op_class_0::SimdReduceAlu            0      0.00%     67.88% # Class of committed instruction
system.cpu.commit.op_class_0::SimdReduceCmp            0      0.00%     67.88% # Class of committed instruction
system.cpu.commit.op_class_0::SimdFloatReduceAdd            0      0.00%     67.88% # Class of committed instruction
system.cpu.commit.op_class_0::SimdFloatReduceCmp            0      0.00%     67.88% # Class of committed instruction
system.cpu.commit.op_class_0::SimdAes               0      0.00%     67.88% # Class of committed instruction
system.cpu.commit.op_class_0::SimdAesMix            0      0.00%     67.88% # Class of committed instruction
system.cpu.commit.op_class_0::SimdSha1Hash            0      0.00%     67.88% # Class of committed instruction
system.cpu.commit.op_class_0::SimdSha1Hash2            0      0.00%     67.88% # Class of committed instruction
system.cpu.commit.op_class_0::SimdSha256Hash            0      0.00%     67.88% # Class of committed instruction
system.cpu.commit.op_class_0::SimdSha256Hash2            0      0.00%     67.88% # Class of committed instruction
system.cpu.commit.op_class_0::SimdShaSigma2            0      0.00%     67.88% # Class of committed instruction
system.cpu.commit.op_class_0::SimdShaSigma3            0      0.00%     67.88% # Class of committed instruction
system.cpu.commit.op_class_0::SimdPredAlu            0      0.00%     67.88% # Class of committed instruction
system.cpu.commit.op_class_0::MemRead            5438     15.14%     83.02% # Class of committed instruction
system.cpu.commit.op_class_0::MemWrite           6102     16.98%    100.00% # Class of committed instruction
system.cpu.commit.op_class_0::FloatMemRead            0      0.00%    100.00% # Class of committed instruction
system.cpu.commit.op_class_0::FloatMemWrite            0      0.00%    100.00% # Class of committed instruction
system.cpu.commit.op_class_0::IprAccess             0      0.00%    100.00% # Class of committed instruction
system.cpu.commit.op_class_0::InstPrefetch            0      0.00%    100.00% # Class of committed instruction
system.cpu.commit.op_class_0::total             35929                       # Class of committed instruction
system.cpu.commit.refs                          11540                       # Number of memory references committed
system.cpu.commit.swp_count                         0                       # Number of s/w prefetches committed
system.cpu.commit.vec_insts                       477                       # Number of committed Vector instructions.
system.cpu.committedInsts                       29355                       # Number of Instructions Simulated
system.cpu.committedOps                         35849                       # Number of Ops (including micro ops) Simulated
system.cpu.cpi                               4.356328                       # CPI: Cycles Per Instruction
system.cpu.cpi_total                         4.356328                       # CPI: Total CPI of All Threads
system.cpu.decode.BlockedCycles                 14432                       # Number of cycles decode is blocked
system.cpu.decode.BranchMispred                   515                       # Number of times decode detected a branch misprediction
system.cpu.decode.BranchResolved                 4251                       # Number of times decode resolved a branch
system.cpu.decode.DecodedInsts                  59883                       # Number of instructions handled by decode
system.cpu.decode.IdleCycles                    25870                       # Number of cycles decode is idle
system.cpu.decode.RunCycles                      9966                       # Number of cycles decode is running
system.cpu.decode.SquashCycles                   1098                       # Number of cycles decode is squashing
system.cpu.decode.SquashedInsts                  1770                       # Number of squashed instructions handled by decode
system.cpu.decode.UnblockCycles                   872                       # Number of cycles decode is unblocking
system.cpu.dtb.accesses                             0                       # DTB accesses
system.cpu.dtb.align_faults                         0                       # Number of TLB faults due to alignment restrictions
system.cpu.dtb.domain_faults                        0                       # Number of TLB faults due to domain restrictions
system.cpu.dtb.flush_entries                        0                       # Number of entries that have been flushed from TLB
system.cpu.dtb.flush_tlb                            0                       # Number of times complete TLB was flushed
system.cpu.dtb.flush_tlb_asid                       0                       # Number of times TLB was flushed by ASID
system.cpu.dtb.flush_tlb_mva                        0                       # Number of times TLB was flushed by MVA
system.cpu.dtb.flush_tlb_mva_asid                   0                       # Number of times TLB was flushed by MVA & ASID
system.cpu.dtb.hits                                 0                       # DTB hits
system.cpu.dtb.inst_accesses                        0                       # ITB inst accesses
system.cpu.dtb.inst_hits                            0                       # ITB inst hits
system.cpu.dtb.inst_misses                          0                       # ITB inst misses
system.cpu.dtb.misses                               0                       # DTB misses
system.cpu.dtb.perms_faults                         0                       # Number of TLB faults due to permissions restrictions
system.cpu.dtb.prefetch_faults                      0                       # Number of TLB faults due to prefetch
system.cpu.dtb.read_accesses                        0                       # DTB read accesses
system.cpu.dtb.read_hits                            0                       # DTB read hits
system.cpu.dtb.read_misses                          0                       # DTB read misses
system.cpu.dtb.stage2_mmu.stage2_tlb.accesses            0                       # DTB accesses
system.cpu.dtb.stage2_mmu.stage2_tlb.align_faults            0                       # Number of TLB faults due to alignment restrictions
system.cpu.dtb.stage2_mmu.stage2_tlb.domain_faults            0                       # Number of TLB faults due to domain restrictions
system.cpu.dtb.stage2_mmu.stage2_tlb.flush_entries            0                       # Number of entries that have been flushed from TLB
system.cpu.dtb.stage2_mmu.stage2_tlb.flush_tlb            0                       # Number of times complete TLB was flushed
system.cpu.dtb.stage2_mmu.stage2_tlb.flush_tlb_asid            0                       # Number of times TLB was flushed by ASID
system.cpu.dtb.stage2_mmu.stage2_tlb.flush_tlb_mva            0                       # Number of times TLB was flushed by MVA
system.cpu.dtb.stage2_mmu.stage2_tlb.flush_tlb_mva_asid            0                       # Number of times TLB was flushed by MVA & ASID
system.cpu.dtb.stage2_mmu.stage2_tlb.hits            0                       # DTB hits
system.cpu.dtb.stage2_mmu.stage2_tlb.inst_accesses            0                       # ITB inst accesses
system.cpu.dtb.stage2_mmu.stage2_tlb.inst_hits            0                       # ITB inst hits
system.cpu.dtb.stage2_mmu.stage2_tlb.inst_misses            0                       # ITB inst misses
system.cpu.dtb.stage2_mmu.stage2_tlb.misses            0                       # DTB misses
system.cpu.dtb.stage2_mmu.stage2_tlb.perms_faults            0                       # Number of TLB faults due to permissions restrictions
system.cpu.dtb.stage2_mmu.stage2_tlb.prefetch_faults            0                       # Number of TLB faults due to prefetch
system.cpu.dtb.stage2_mmu.stage2_tlb.read_accesses            0                       # DTB read accesses
system.cpu.dtb.stage2_mmu.stage2_tlb.read_hits            0                       # DTB read hits
system.cpu.dtb.stage2_mmu.stage2_tlb.read_misses            0                       # DTB read misses
system.cpu.dtb.stage2_mmu.stage2_tlb.walker.walkRequestOrigin_Requested::Data            0                       # Table walker requests started/completed, data/inst
system.cpu.dtb.stage2_mmu.stage2_tlb.walker.walkRequestOrigin_Requested::Inst            0                       # Table walker requests started/completed, data/inst
system.cpu.dtb.stage2_mmu.stage2_tlb.walker.walkRequestOrigin_Requested::total            0                       # Table walker requests started/completed, data/inst
system.cpu.dtb.stage2_mmu.stage2_tlb.walker.walkRequestOrigin_Completed::Data            0                       # Table walker requests started/completed, data/inst
system.cpu.dtb.stage2_mmu.stage2_tlb.walker.walkRequestOrigin_Completed::Inst            0                       # Table walker requests started/completed, data/inst
system.cpu.dtb.stage2_mmu.stage2_tlb.walker.walkRequestOrigin_Completed::total            0                       # Table walker requests started/completed, data/inst
system.cpu.dtb.stage2_mmu.stage2_tlb.walker.walkRequestOrigin::total            0                       # Table walker requests started/completed, data/inst
system.cpu.dtb.stage2_mmu.stage2_tlb.walker.walks            0                       # Table walker walks requested
system.cpu.dtb.stage2_mmu.stage2_tlb.write_accesses            0                       # DTB write accesses
system.cpu.dtb.stage2_mmu.stage2_tlb.write_hits            0                       # DTB write hits
system.cpu.dtb.stage2_mmu.stage2_tlb.write_misses            0                       # DTB write misses
system.cpu.dtb.walker.walkRequestOrigin_Requested::Data            0                       # Table walker requests started/completed, data/inst
system.cpu.dtb.walker.walkRequestOrigin_Requested::Inst            0                       # Table walker requests started/completed, data/inst
system.cpu.dtb.walker.walkRequestOrigin_Requested::total            0                       # Table walker requests started/completed, data/inst
system.cpu.dtb.walker.walkRequestOrigin_Completed::Data            0                       # Table walker requests started/completed, data/inst
system.cpu.dtb.walker.walkRequestOrigin_Completed::Inst            0                       # Table walker requests started/completed, data/inst
system.cpu.dtb.walker.walkRequestOrigin_Completed::total            0                       # Table walker requests started/completed, data/inst
system.cpu.dtb.walker.walkRequestOrigin::total            0                       # Table walker requests started/completed, data/inst
system.cpu.dtb.walker.walks                         0                       # Table walker walks requested
system.cpu.dtb.write_accesses                       0                       # DTB write accesses
system.cpu.dtb.write_hits                           0                       # DTB write hits
system.cpu.dtb.write_misses                         0                       # DTB write misses
system.cpu.fetch.Branches                       13343                       # Number of branches that fetch encountered
system.cpu.fetch.CacheLines                      8349                       # Number of cache lines fetched
system.cpu.fetch.Cycles                         20177                       # Number of cycles fetch has run and was not squashing or blocked
system.cpu.fetch.IcacheSquashes                   977                       # Number of outstanding Icache misses that were squashed
system.cpu.fetch.IcacheWaitRetryStallCycles           53                       # Number of stall cycles due to full MSHR
system.cpu.fetch.Insts                          57827                       # Number of instructions fetch has processed
system.cpu.fetch.MiscStallCycles                    5                       # Number of cycles fetch has spent waiting on interrupts, or bad addresses, or out of MSHRs
system.cpu.fetch.SquashCycles                    3208                       # Number of cycles fetch has spent squashing
system.cpu.fetch.branchRate                  0.104340                       # Number of branch fetches per cycle
system.cpu.fetch.icacheStallCycles              30399                       # Number of cycles fetch is stalled on an Icache miss
system.cpu.fetch.predictedBranches               5252                       # Number of branches that fetch has predicted taken
system.cpu.fetch.rate                        0.452197                       # Number of inst fetches per cycle
system.cpu.fetch.rateDist::samples              52238                       # Number of instructions fetched each cycle (Total)
system.cpu.fetch.rateDist::mean              1.325740                       # Number of instructions fetched each cycle (Total)
system.cpu.fetch.rateDist::stdev             2.649447                       # Number of instructions fetched each cycle (Total)
system.cpu.fetch.rateDist::underflows               0      0.00%      0.00% # Number of instructions fetched each cycle (Total)
system.cpu.fetch.rateDist::0                    39513     75.64%     75.64% # Number of instructions fetched each cycle (Total)
system.cpu.fetch.rateDist::1                     1092      2.09%     77.73% # Number of instructions fetched each cycle (Total)
system.cpu.fetch.rateDist::2                     1261      2.41%     80.14% # Number of instructions fetched each cycle (Total)
system.cpu.fetch.rateDist::3                     1125      2.15%     82.30% # Number of instructions fetched each cycle (Total)
system.cpu.fetch.rateDist::4                     1497      2.87%     85.16% # Number of instructions fetched each cycle (Total)
system.cpu.fetch.rateDist::5                     1049      2.01%     87.17% # Number of instructions fetched each cycle (Total)
system.cpu.fetch.rateDist::6                      916      1.75%     88.93% # Number of instructions fetched each cycle (Total)
system.cpu.fetch.rateDist::7                      744      1.42%     90.35% # Number of instructions fetched each cycle (Total)
system.cpu.fetch.rateDist::8                     5041      9.65%    100.00% # Number of instructions fetched each cycle (Total)
system.cpu.fetch.rateDist::overflows                0      0.00%    100.00% # Number of instructions fetched each cycle (Total)
system.cpu.fetch.rateDist::min_value                0                       # Number of instructions fetched each cycle (Total)
system.cpu.fetch.rateDist::max_value                8                       # Number of instructions fetched each cycle (Total)
system.cpu.fetch.rateDist::total                52238                       # Number of instructions fetched each cycle (Total)
system.cpu.icache.prefetcher.num_hwpf_issued         2194                       # number of hwpf issued
system.cpu.icache.prefetcher.pfBufferHit          285                       # number of redundant prefetches already in prefetch queue
system.cpu.icache.prefetcher.pfIdentified         2825                       # number of prefetch candidates identified
system.cpu.icache.prefetcher.pfInCache              0                       # number of redundant prefetches already in cache/mshr dropped
system.cpu.icache.prefetcher.pfRemovedFull          213                       # number of prefetches dropped due to prefetch queue size
system.cpu.icache.prefetcher.pfSpanPage         20439                       # number of prefetches that crossed the page
system.cpu.idleCycles                           75642                       # Total number of cycles that the CPU has spent unscheduled due to idling
system.cpu.iew.branchMispredicts                 1249                       # Number of branch mispredicts detected at execute
system.cpu.iew.exec_branches                     8389                       # Number of branches executed
system.cpu.iew.exec_nop                           163                       # number of nop insts executed
system.cpu.iew.exec_rate                     0.368517                       # Inst execution rate
system.cpu.iew.exec_refs                        15058                       # number of memory reference insts executed
system.cpu.iew.exec_stores                       7210                       # Number of stores executed
system.cpu.iew.exec_swp                             0                       # number of swp insts executed
system.cpu.iew.iewBlockCycles                    2588                       # Number of cycles IEW is blocking
system.cpu.iew.iewDispLoadInsts                  8286                       # Number of dispatched load instructions
system.cpu.iew.iewDispNonSpecInsts                 76                       # Number of dispatched non-speculative instructions
system.cpu.iew.iewDispSquashedInsts               261                       # Number of squashed instructions skipped by dispatch
system.cpu.iew.iewDispStoreInsts                 8727                       # Number of dispatched store instructions
system.cpu.iew.iewDispatchedInsts               53372                       # Number of instructions dispatched to IQ
system.cpu.iew.iewExecLoadInsts                  7848                       # Number of load instructions executed
system.cpu.iew.iewExecSquashedInsts              1650                       # Number of squashed instructions skipped in execute
system.cpu.iew.iewExecutedInsts                 47126                       # Number of executed instructions
system.cpu.iew.iewIQFullEvents                     10                       # Number of times the IQ has become full, causing a stall
system.cpu.iew.iewIdleCycles                        0                       # Number of cycles IEW is idle
system.cpu.iew.iewLSQFullEvents                   608                       # Number of times the LSQ has become full, causing a stall
system.cpu.iew.iewSquashCycles                   1098                       # Number of cycles IEW is squashing
system.cpu.iew.iewUnblockCycles                   615                       # Number of cycles IEW is unblocking
system.cpu.iew.lsq.thread0.blockedLoads             0                       # Number of blocked loads due to partial load-store forwarding
system.cpu.iew.lsq.thread0.cacheBlocked            96                       # Number of times an access to memory failed due to the cache being blocked
system.cpu.iew.lsq.thread0.forwLoads              109                       # Number of loads that had data forwarded from stores
system.cpu.iew.lsq.thread0.ignoredResponses            5                       # Number of memory responses ignored because the instruction is squashed
system.cpu.iew.lsq.thread0.invAddrLoads             0                       # Number of loads ignored due to an invalid address
system.cpu.iew.lsq.thread0.invAddrSwpfs             0                       # Number of software prefetches ignored due to an invalid address
system.cpu.iew.lsq.thread0.memOrderViolation           24                       # Number of memory ordering violations
system.cpu.iew.lsq.thread0.rescheduledLoads          178                       # Number of loads that were rescheduled
system.cpu.iew.lsq.thread0.squashedLoads         2848                       # Number of loads squashed
system.cpu.iew.lsq.thread0.squashedStores         2625                       # Number of stores squashed
system.cpu.iew.memOrderViolationEvents             24                       # Number of memory order violations
system.cpu.iew.predictedNotTakenIncorrect         1101                       # Number of branches that were predicted not taken incorrectly
system.cpu.iew.predictedTakenIncorrect            148                       # Number of branches that were predicted taken incorrectly
system.cpu.iew.wb_consumers                     40062                       # num instructions consuming a value
system.cpu.iew.wb_count                         45226                       # cumulative count of insts written-back
system.cpu.iew.wb_fanout                     0.564550                       # average fanout of values written-back
system.cpu.iew.wb_producers                     22617                       # num instructions producing a value
system.cpu.iew.wb_rate                       0.353660                       # insts written-back per cycle
system.cpu.iew.wb_sent                          46108                       # cumulative count of insts sent to commit
system.cpu.int_regfile_reads                    52407                       # number of integer regfile reads
system.cpu.int_regfile_writes                   32227                       # number of integer regfile writes
system.cpu.ipc                               0.229551                       # IPC: Instructions Per Cycle
system.cpu.ipc_total                         0.229551                       # IPC: Total IPC of All Threads
system.cpu.iq.FU_type_0::No_OpClass                 9      0.02%      0.02% # Type of FU issued
system.cpu.iq.FU_type_0::IntAlu                 32643     66.92%     66.94% # Type of FU issued
system.cpu.iq.FU_type_0::IntMult                   55      0.11%     67.06% # Type of FU issued
system.cpu.iq.FU_type_0::IntDiv                     7      0.01%     67.07% # Type of FU issued
system.cpu.iq.FU_type_0::FloatAdd                   0      0.00%     67.07% # Type of FU issued
system.cpu.iq.FU_type_0::FloatCmp                   0      0.00%     67.07% # Type of FU issued
system.cpu.iq.FU_type_0::FloatCvt                   0      0.00%     67.07% # Type of FU issued
system.cpu.iq.FU_type_0::FloatMult                  0      0.00%     67.07% # Type of FU issued
system.cpu.iq.FU_type_0::FloatMultAcc               0      0.00%     67.07% # Type of FU issued
system.cpu.iq.FU_type_0::FloatDiv                   0      0.00%     67.07% # Type of FU issued
system.cpu.iq.FU_type_0::FloatMisc                  1      0.00%     67.07% # Type of FU issued
system.cpu.iq.FU_type_0::FloatSqrt                  0      0.00%     67.07% # Type of FU issued
system.cpu.iq.FU_type_0::SimdAdd                   35      0.07%     67.14% # Type of FU issued
system.cpu.iq.FU_type_0::SimdAddAcc                 0      0.00%     67.14% # Type of FU issued
system.cpu.iq.FU_type_0::SimdAlu                   41      0.08%     67.23% # Type of FU issued
system.cpu.iq.FU_type_0::SimdCmp                   36      0.07%     67.30% # Type of FU issued
system.cpu.iq.FU_type_0::SimdCvt                    0      0.00%     67.30% # Type of FU issued
system.cpu.iq.FU_type_0::SimdMisc                  47      0.10%     67.40% # Type of FU issued
system.cpu.iq.FU_type_0::SimdMult                   0      0.00%     67.40% # Type of FU issued
system.cpu.iq.FU_type_0::SimdMultAcc                0      0.00%     67.40% # Type of FU issued
system.cpu.iq.FU_type_0::SimdShift                  0      0.00%     67.40% # Type of FU issued
system.cpu.iq.FU_type_0::SimdShiftAcc               0      0.00%     67.40% # Type of FU issued
system.cpu.iq.FU_type_0::SimdDiv                    0      0.00%     67.40% # Type of FU issued
system.cpu.iq.FU_type_0::SimdSqrt                   0      0.00%     67.40% # Type of FU issued
system.cpu.iq.FU_type_0::SimdFloatAdd               0      0.00%     67.40% # Type of FU issued
system.cpu.iq.FU_type_0::SimdFloatAlu               0      0.00%     67.40% # Type of FU issued
system.cpu.iq.FU_type_0::SimdFloatCmp               0      0.00%     67.40% # Type of FU issued
system.cpu.iq.FU_type_0::SimdFloatCvt               0      0.00%     67.40% # Type of FU issued
system.cpu.iq.FU_type_0::SimdFloatDiv               0      0.00%     67.40% # Type of FU issued
system.cpu.iq.FU_type_0::SimdFloatMisc              0      0.00%     67.40% # Type of FU issued
system.cpu.iq.FU_type_0::SimdFloatMult              0      0.00%     67.40% # Type of FU issued
system.cpu.iq.FU_type_0::SimdFloatMultAcc            0      0.00%     67.40% # Type of FU issued
system.cpu.iq.FU_type_0::SimdFloatSqrt              0      0.00%     67.40% # Type of FU issued
system.cpu.iq.FU_type_0::SimdReduceAdd              0      0.00%     67.40% # Type of FU issued
system.cpu.iq.FU_type_0::SimdReduceAlu              0      0.00%     67.40% # Type of FU issued
system.cpu.iq.FU_type_0::SimdReduceCmp              0      0.00%     67.40% # Type of FU issued
system.cpu.iq.FU_type_0::SimdFloatReduceAdd            0      0.00%     67.40% # Type of FU issued
system.cpu.iq.FU_type_0::SimdFloatReduceCmp            0      0.00%     67.40% # Type of FU issued
system.cpu.iq.FU_type_0::SimdAes                    0      0.00%     67.40% # Type of FU issued
system.cpu.iq.FU_type_0::SimdAesMix                 0      0.00%     67.40% # Type of FU issued
system.cpu.iq.FU_type_0::SimdSha1Hash               0      0.00%     67.40% # Type of FU issued
system.cpu.iq.FU_type_0::SimdSha1Hash2              0      0.00%     67.40% # Type of FU issued
system.cpu.iq.FU_type_0::SimdSha256Hash             0      0.00%     67.40% # Type of FU issued
system.cpu.iq.FU_type_0::SimdSha256Hash2            0      0.00%     67.40% # Type of FU issued
system.cpu.iq.FU_type_0::SimdShaSigma2              0      0.00%     67.40% # Type of FU issued
system.cpu.iq.FU_type_0::SimdShaSigma3              0      0.00%     67.40% # Type of FU issued
system.cpu.iq.FU_type_0::SimdPredAlu                0      0.00%     67.40% # Type of FU issued
system.cpu.iq.FU_type_0::MemRead                 8225     16.86%     84.26% # Type of FU issued
system.cpu.iq.FU_type_0::MemWrite                7677     15.74%    100.00% # Type of FU issued
system.cpu.iq.FU_type_0::FloatMemRead               0      0.00%    100.00% # Type of FU issued
system.cpu.iq.FU_type_0::FloatMemWrite              0      0.00%    100.00% # Type of FU issued
system.cpu.iq.FU_type_0::IprAccess                  0      0.00%    100.00% # Type of FU issued
system.cpu.iq.FU_type_0::InstPrefetch               0      0.00%    100.00% # Type of FU issued
system.cpu.iq.FU_type_0::total                  48776                       # Type of FU issued
system.cpu.iq.fp_alu_accesses                       0                       # Number of floating point alu accesses
system.cpu.iq.fp_inst_queue_reads                   0                       # Number of floating instruction queue reads
system.cpu.iq.fp_inst_queue_wakeup_accesses            0                       # Number of floating instruction queue wakeup accesses
system.cpu.iq.fp_inst_queue_writes                  0                       # Number of floating instruction queue writes
system.cpu.iq.fu_busy_cnt                         768                       # FU busy when requested
system.cpu.iq.fu_busy_rate                   0.015745                       # FU busy rate (busy events/executed inst)
system.cpu.iq.fu_full::No_OpClass                   0      0.00%      0.00% # attempts to use FU when none available
system.cpu.iq.fu_full::IntAlu                     253     32.94%     32.94% # attempts to use FU when none available
system.cpu.iq.fu_full::IntMult                      0      0.00%     32.94% # attempts to use FU when none available
system.cpu.iq.fu_full::IntDiv                       0      0.00%     32.94% # attempts to use FU when none available
system.cpu.iq.fu_full::FloatAdd                     0      0.00%     32.94% # attempts to use FU when none available
system.cpu.iq.fu_full::FloatCmp                     0      0.00%     32.94% # attempts to use FU when none available
system.cpu.iq.fu_full::FloatCvt                     0      0.00%     32.94% # attempts to use FU when none available
system.cpu.iq.fu_full::FloatMult                    0      0.00%     32.94% # attempts to use FU when none available
system.cpu.iq.fu_full::FloatMultAcc                 0      0.00%     32.94% # attempts to use FU when none available
system.cpu.iq.fu_full::FloatDiv                     0      0.00%     32.94% # attempts to use FU when none available
system.cpu.iq.fu_full::FloatMisc                    0      0.00%     32.94% # attempts to use FU when none available
system.cpu.iq.fu_full::FloatSqrt                    0      0.00%     32.94% # attempts to use FU when none available
system.cpu.iq.fu_full::SimdAdd                      0      0.00%     32.94% # attempts to use FU when none available
system.cpu.iq.fu_full::SimdAddAcc                   0      0.00%     32.94% # attempts to use FU when none available
system.cpu.iq.fu_full::SimdAlu                      2      0.26%     33.20% # attempts to use FU when none available
system.cpu.iq.fu_full::SimdCmp                      3      0.39%     33.59% # attempts to use FU when none available
system.cpu.iq.fu_full::SimdCvt                      0      0.00%     33.59% # attempts to use FU when none available
system.cpu.iq.fu_full::SimdMisc                     0      0.00%     33.59% # attempts to use FU when none available
system.cpu.iq.fu_full::SimdMult                     0      0.00%     33.59% # attempts to use FU when none available
system.cpu.iq.fu_full::SimdMultAcc                  0      0.00%     33.59% # attempts to use FU when none available
system.cpu.iq.fu_full::SimdShift                    0      0.00%     33.59% # attempts to use FU when none available
system.cpu.iq.fu_full::SimdShiftAcc                 0      0.00%     33.59% # attempts to use FU when none available
system.cpu.iq.fu_full::SimdDiv                      0      0.00%     33.59% # attempts to use FU when none available
system.cpu.iq.fu_full::SimdSqrt                     0      0.00%     33.59% # attempts to use FU when none available
system.cpu.iq.fu_full::SimdFloatAdd                 0      0.00%     33.59% # attempts to use FU when none available
system.cpu.iq.fu_full::SimdFloatAlu                 0      0.00%     33.59% # attempts to use FU when none available
system.cpu.iq.fu_full::SimdFloatCmp                 0      0.00%     33.59% # attempts to use FU when none available
system.cpu.iq.fu_full::SimdFloatCvt                 0      0.00%     33.59% # attempts to use FU when none available
system.cpu.iq.fu_full::SimdFloatDiv                 0      0.00%     33.59% # attempts to use FU when none available
system.cpu.iq.fu_full::SimdFloatMisc                0      0.00%     33.59% # attempts to use FU when none available
system.cpu.iq.fu_full::SimdFloatMult                0      0.00%     33.59% # attempts to use FU when none available
system.cpu.iq.fu_full::SimdFloatMultAcc             0      0.00%     33.59% # attempts to use FU when none available
system.cpu.iq.fu_full::SimdFloatSqrt                0      0.00%     33.59% # attempts to use FU when none available
system.cpu.iq.fu_full::SimdReduceAdd                0      0.00%     33.59% # attempts to use FU when none available
system.cpu.iq.fu_full::SimdReduceAlu                0      0.00%     33.59% # attempts to use FU when none available
system.cpu.iq.fu_full::SimdReduceCmp                0      0.00%     33.59% # attempts to use FU when none available
system.cpu.iq.fu_full::SimdFloatReduceAdd            0      0.00%     33.59% # attempts to use FU when none available
system.cpu.iq.fu_full::SimdFloatReduceCmp            0      0.00%     33.59% # attempts to use FU when none available
system.cpu.iq.fu_full::SimdAes                      0      0.00%     33.59% # attempts to use FU when none available
system.cpu.iq.fu_full::SimdAesMix                   0      0.00%     33.59% # attempts to use FU when none available
system.cpu.iq.fu_full::SimdSha1Hash                 0      0.00%     33.59% # attempts to use FU when none available
system.cpu.iq.fu_full::SimdSha1Hash2                0      0.00%     33.59% # attempts to use FU when none available
system.cpu.iq.fu_full::SimdSha256Hash               0      0.00%     33.59% # attempts to use FU when none available
system.cpu.iq.fu_full::SimdSha256Hash2              0      0.00%     33.59% # attempts to use FU when none available
system.cpu.iq.fu_full::SimdShaSigma2                0      0.00%     33.59% # attempts to use FU when none available
system.cpu.iq.fu_full::SimdShaSigma3                0      0.00%     33.59% # attempts to use FU when none available
system.cpu.iq.fu_full::SimdPredAlu                  0      0.00%     33.59% # attempts to use FU when none available
system.cpu.iq.fu_full::MemRead                    216     28.12%     61.72% # attempts to use FU when none available
system.cpu.iq.fu_full::MemWrite                   294     38.28%    100.00% # attempts to use FU when none available
system.cpu.iq.fu_full::FloatMemRead                 0      0.00%    100.00% # attempts to use FU when none available
system.cpu.iq.fu_full::FloatMemWrite                0      0.00%    100.00% # attempts to use FU when none available
system.cpu.iq.fu_full::IprAccess                    0      0.00%    100.00% # attempts to use FU when none available
system.cpu.iq.fu_full::InstPrefetch                 0      0.00%    100.00% # attempts to use FU when none available
system.cpu.iq.int_alu_accesses                  48628                       # Number of integer alu accesses
system.cpu.iq.int_inst_queue_reads             148947                       # Number of integer instruction queue reads
system.cpu.iq.int_inst_queue_wakeup_accesses        44545                       # Number of integer instruction queue wakeup accesses
system.cpu.iq.int_inst_queue_writes             68800                       # Number of integer instruction queue writes
system.cpu.iq.iqInstsAdded                      53133                       # Number of instructions added to the IQ (excludes non-spec)
system.cpu.iq.iqInstsIssued                     48776                       # Number of instructions issued
system.cpu.iq.iqNonSpecInstsAdded                  76                       # Number of non-speculative instructions added to the IQ
system.cpu.iq.iqSquashedInstsExamined           17359                       # Number of squashed instructions iterated over during squash; mainly for profiling
system.cpu.iq.iqSquashedInstsIssued               300                       # Number of squashed instructions issued
system.cpu.iq.iqSquashedNonSpecRemoved             28                       # Number of squashed non-spec instructions that were removed
system.cpu.iq.iqSquashedOperandsExamined        11852                       # Number of squashed operands that are examined and possibly removed from graph
system.cpu.iq.issued_per_cycle::samples         52238                       # Number of insts issued each cycle
system.cpu.iq.issued_per_cycle::mean         0.933726                       # Number of insts issued each cycle
system.cpu.iq.issued_per_cycle::stdev        1.746993                       # Number of insts issued each cycle
system.cpu.iq.issued_per_cycle::underflows            0      0.00%      0.00% # Number of insts issued each cycle
system.cpu.iq.issued_per_cycle::0               36439     69.76%     69.76% # Number of insts issued each cycle
system.cpu.iq.issued_per_cycle::1                3841      7.35%     77.11% # Number of insts issued each cycle
system.cpu.iq.issued_per_cycle::2                3377      6.46%     83.57% # Number of insts issued each cycle
system.cpu.iq.issued_per_cycle::3                2868      5.49%     89.06% # Number of insts issued each cycle
system.cpu.iq.issued_per_cycle::4                2192      4.20%     93.26% # Number of insts issued each cycle
system.cpu.iq.issued_per_cycle::5                1632      3.12%     96.38% # Number of insts issued each cycle
system.cpu.iq.issued_per_cycle::6                 993      1.90%     98.28% # Number of insts issued each cycle
system.cpu.iq.issued_per_cycle::7                 477      0.91%     99.20% # Number of insts issued each cycle
system.cpu.iq.issued_per_cycle::8                 419      0.80%    100.00% # Number of insts issued each cycle
system.cpu.iq.issued_per_cycle::overflows            0      0.00%    100.00% # Number of insts issued each cycle
system.cpu.iq.issued_per_cycle::min_value            0                       # Number of insts issued each cycle
system.cpu.iq.issued_per_cycle::max_value            8                       # Number of insts issued each cycle
system.cpu.iq.issued_per_cycle::total           52238                       # Number of insts issued each cycle
system.cpu.iq.rate                           0.381420                       # Inst issue rate
system.cpu.iq.vec_alu_accesses                    907                       # Number of vector alu accesses
system.cpu.iq.vec_inst_queue_reads               1911                       # Number of vector instruction queue reads
system.cpu.iq.vec_inst_queue_wakeup_accesses          681                       # Number of vector instruction queue wakeup accesses
system.cpu.iq.vec_inst_queue_writes              1791                       # Number of vector instruction queue writes
system.cpu.itb.accesses                             0                       # DTB accesses
system.cpu.itb.align_faults                         0                       # Number of TLB faults due to alignment restrictions
system.cpu.itb.domain_faults                        0                       # Number of TLB faults due to domain restrictions
system.cpu.itb.flush_entries                        0                       # Number of entries that have been flushed from TLB
system.cpu.itb.flush_tlb                            0                       # Number of times complete TLB was flushed
system.cpu.itb.flush_tlb_asid                       0                       # Number of times TLB was flushed by ASID
system.cpu.itb.flush_tlb_mva                        0                       # Number of times TLB was flushed by MVA
system.cpu.itb.flush_tlb_mva_asid                   0                       # Number of times TLB was flushed by MVA & ASID
system.cpu.itb.hits                                 0                       # DTB hits
system.cpu.itb.inst_accesses                        0                       # ITB inst accesses
system.cpu.itb.inst_hits                            0                       # ITB inst hits
system.cpu.itb.inst_misses                          0                       # ITB inst misses
system.cpu.itb.misses                               0                       # DTB misses
system.cpu.itb.perms_faults                         0                       # Number of TLB faults due to permissions restrictions
system.cpu.itb.prefetch_faults                      0                       # Number of TLB faults due to prefetch
system.cpu.itb.read_accesses                        0                       # DTB read accesses
system.cpu.itb.read_hits                            0                       # DTB read hits
system.cpu.itb.read_misses                          0                       # DTB read misses
system.cpu.itb.stage2_mmu.stage2_tlb.accesses            0                       # DTB accesses
system.cpu.itb.stage2_mmu.stage2_tlb.align_faults            0                       # Number of TLB faults due to alignment restrictions
system.cpu.itb.stage2_mmu.stage2_tlb.domain_faults            0                       # Number of TLB faults due to domain restrictions
system.cpu.itb.stage2_mmu.stage2_tlb.flush_entries            0                       # Number of entries that have been flushed from TLB
system.cpu.itb.stage2_mmu.stage2_tlb.flush_tlb            0                       # Number of times complete TLB was flushed
system.cpu.itb.stage2_mmu.stage2_tlb.flush_tlb_asid            0                       # Number of times TLB was flushed by ASID
system.cpu.itb.stage2_mmu.stage2_tlb.flush_tlb_mva            0                       # Number of times TLB was flushed by MVA
system.cpu.itb.stage2_mmu.stage2_tlb.flush_tlb_mva_asid            0                       # Number of times TLB was flushed by MVA & ASID
system.cpu.itb.stage2_mmu.stage2_tlb.hits            0                       # DTB hits
system.cpu.itb.stage2_mmu.stage2_tlb.inst_accesses            0                       # ITB inst accesses
system.cpu.itb.stage2_mmu.stage2_tlb.inst_hits            0                       # ITB inst hits
system.cpu.itb.stage2_mmu.stage2_tlb.inst_misses            0                       # ITB inst misses
system.cpu.itb.stage2_mmu.stage2_tlb.misses            0                       # DTB misses
system.cpu.itb.stage2_mmu.stage2_tlb.perms_faults            0                       # Number of TLB faults due to permissions restrictions
system.cpu.itb.stage2_mmu.stage2_tlb.prefetch_faults            0                       # Number of TLB faults due to prefetch
system.cpu.itb.stage2_mmu.stage2_tlb.read_accesses            0                       # DTB read accesses
system.cpu.itb.stage2_mmu.stage2_tlb.read_hits            0                       # DTB read hits
system.cpu.itb.stage2_mmu.stage2_tlb.read_misses            0                       # DTB read misses
system.cpu.itb.stage2_mmu.stage2_tlb.walker.walkRequestOrigin_Requested::Data            0                       # Table walker requests started/completed, data/inst
system.cpu.itb.stage2_mmu.stage2_tlb.walker.walkRequestOrigin_Requested::Inst            0                       # Table walker requests started/completed, data/inst
system.cpu.itb.stage2_mmu.stage2_tlb.walker.walkRequestOrigin_Requested::total            0                       # Table walker requests started/completed, data/inst
system.cpu.itb.stage2_mmu.stage2_tlb.walker.walkRequestOrigin_Completed::Data            0                       # Table walker requests started/completed, data/inst
system.cpu.itb.stage2_mmu.stage2_tlb.walker.walkRequestOrigin_Completed::Inst            0                       # Table walker requests started/completed, data/inst
system.cpu.itb.stage2_mmu.stage2_tlb.walker.walkRequestOrigin_Completed::total            0                       # Table walker requests started/completed, data/inst
system.cpu.itb.stage2_mmu.stage2_tlb.walker.walkRequestOrigin::total            0                       # Table walker requests started/completed, data/inst
system.cpu.itb.stage2_mmu.stage2_tlb.walker.walks            0                       # Table walker walks requested
system.cpu.itb.stage2_mmu.stage2_tlb.write_accesses            0                       # DTB write accesses
system.cpu.itb.stage2_mmu.stage2_tlb.write_hits            0                       # DTB write hits
system.cpu.itb.stage2_mmu.stage2_tlb.write_misses            0                       # DTB write misses
system.cpu.itb.walker.walkRequestOrigin_Requested::Data            0                       # Table walker requests started/completed, data/inst
system.cpu.itb.walker.walkRequestOrigin_Requested::Inst            0                       # Table walker requests started/completed, data/inst
system.cpu.itb.walker.walkRequestOrigin_Requested::total            0                       # Table walker requests started/completed, data/inst
system.cpu.itb.walker.walkRequestOrigin_Completed::Data            0                       # Table walker requests started/completed, data/inst
system.cpu.itb.walker.walkRequestOrigin_Completed::Inst            0                       # Table walker requests started/completed, data/inst
system.cpu.itb.walker.walkRequestOrigin_Completed::total            0                       # Table walker requests started/completed, data/inst
system.cpu.itb.walker.walkRequestOrigin::total            0                       # Table walker requests started/completed, data/inst
system.cpu.itb.walker.walks                         0                       # Table walker walks requested
system.cpu.itb.write_accesses                       0                       # DTB write accesses
system.cpu.itb.write_hits                           0                       # DTB write hits
system.cpu.itb.write_misses                         0                       # DTB write misses
system.cpu.memDep0.conflictingLoads                17                       # Number of conflicting loads.
system.cpu.memDep0.conflictingStores              109                       # Number of conflicting stores.
system.cpu.memDep0.insertedLoads                 8286                       # Number of loads inserted to the mem dependence unit.
system.cpu.memDep0.insertedStores                8727                       # Number of stores inserted to the mem dependence unit.
system.cpu.misc_regfile_reads                   36568                       # number of misc regfile reads
system.cpu.misc_regfile_writes                     97                       # number of misc regfile writes
system.cpu.numCycles                           127880                       # number of cpu cycles simulated
system.cpu.numWorkItemsCompleted                    0                       # number of work items this cpu completed
system.cpu.numWorkItemsStarted                      0                       # number of work items this cpu started
system.cpu.rename.BlockCycles                    3600                       # Number of cycles rename is blocking
system.cpu.rename.CommittedMaps                 33835                       # Number of HB maps that are committed
system.cpu.rename.IQFullEvents                    232                       # Number of times rename has blocked due to IQ full
system.cpu.rename.IdleCycles                    26825                       # Number of cycles rename is idle
system.cpu.rename.LQFullEvents                     94                       # Number of times rename has blocked due to LQ full
system.cpu.rename.ROBFullEvents                     8                       # Number of times rename has blocked due to ROB full
system.cpu.rename.RenameLookups                 82295                       # Number of register rename lookups that rename has made
system.cpu.rename.RenamedInsts                  57043                       # Number of instructions processed by rename
system.cpu.rename.RenamedOperands               52929                       # Number of destination operands rename has renamed
system.cpu.rename.RunCycles                      9851                       # Number of cycles rename is running
system.cpu.rename.SQFullEvents                   1604                       # Number of times rename has blocked due to SQ full
system.cpu.rename.SquashCycles                   1098                       # Number of cycles rename is squashing
system.cpu.rename.UnblockCycles                  2249                       # Number of cycles rename is unblocking
system.cpu.rename.UndoneMaps                    19094                       # Number of HB maps that are undone due to squashing
system.cpu.rename.int_rename_lookups            63733                       # Number of integer rename lookups
system.cpu.rename.serializeStallCycles           8615                       # count of cycles rename stalled for serializing inst
system.cpu.rename.serializingInsts                328                       # count of serializing insts renamed
system.cpu.rename.skidInsts                      3601                       # count of insts added to the skid buffer
system.cpu.rename.tempSerializingInsts             77                       # count of temporary serializing insts renamed
system.cpu.rename.vec_rename_lookups             1276                       # Number of vector rename lookups
system.cpu.rob.rob_reads                       101008                       # The number of ROB reads
system.cpu.rob.rob_writes                      109443                       # The number of ROB writes
system.cpu.timesIdled                             800                       # Number of times that the entire CPU went into an idle state and unscheduled itself
system.cpu.vec_regfile_reads                      741                       # number of vector regfile reads
system.cpu.vec_regfile_writes                     184                       # number of vector regfile writes
system.cpu.workload.numSyscalls                    23                       # Number of system calls
system.membus.snoop_filter.hit_multi_requests            0                       # Number of requests hitting in the snoop filter with multiple (>1) holders of the requested data.
system.membus.snoop_filter.hit_multi_snoops            0                       # Number of snoops hitting in the snoop filter with multiple (>1) holders of the requested data.
system.membus.snoop_filter.hit_single_requests            0                       # Number of requests hitting in the snoop filter with a single holder of the requested data.
system.membus.snoop_filter.hit_single_snoops            0                       # Number of snoops hitting in the snoop filter with a single holder of the requested data.
system.membus.snoop_filter.tot_requests          1308                       # Total number of requests made to the snoop filter.
system.membus.snoop_filter.tot_snoops               0                       # Total number of snoops made to the snoop filter.
system.tol2bus.snoop_filter.hit_multi_requests            3                       # Number of requests hitting in the snoop filter with multiple (>1) holders of the requested data.
system.tol2bus.snoop_filter.hit_multi_snoops            0                       # Number of snoops hitting in the snoop filter with multiple (>1) holders of the requested data.
system.tol2bus.snoop_filter.hit_single_requests         1280                       # Number of requests hitting in the snoop filter with a single holder of the requested data.
system.tol2bus.snoop_filter.hit_single_snoops            0                       # Number of snoops hitting in the snoop filter with a single holder of the requested data.
system.tol2bus.snoop_filter.tot_requests         3228                       # Total number of requests made to the snoop filter.
system.tol2bus.snoop_filter.tot_snoops              0                       # Total number of snoops made to the snoop filter.
system.membus.trans_dist::ReadResp               1066                       # Transaction distribution
system.membus.trans_dist::ReadExReq               177                       # Transaction distribution
system.membus.trans_dist::ReadExResp              177                       # Transaction distribution
system.membus.trans_dist::ReadSharedReq          1067                       # Transaction distribution
system.membus.trans_dist::InvalidateReq            64                       # Transaction distribution
system.membus.pkt_count_system.l2.mem_side::system.mem_ctrls.port         2551                       # Packet count per connected master and slave (bytes)
system.membus.pkt_count::total                   2551                       # Packet count per connected master and slave (bytes)
system.membus.pkt_size_system.l2.mem_side::system.mem_ctrls.port        79552                       # Cumulative packet size per connected master and slave (bytes)
system.membus.pkt_size::total                   79552                       # Cumulative packet size per connected master and slave (bytes)
system.membus.snoops                                0                       # Total snoops (count)
system.membus.snoopTraffic                          0                       # Total snoop traffic (bytes)
system.membus.snoop_fanout::samples              1308                       # Request fanout histogram
system.membus.snoop_fanout::mean                    0                       # Request fanout histogram
system.membus.snoop_fanout::stdev                   0                       # Request fanout histogram
system.membus.snoop_fanout::underflows              0      0.00%      0.00% # Request fanout histogram
system.membus.snoop_fanout::0                    1308    100.00%    100.00% # Request fanout histogram
system.membus.snoop_fanout::1                       0      0.00%    100.00% # Request fanout histogram
system.membus.snoop_fanout::overflows               0      0.00%    100.00% # Request fanout histogram
system.membus.snoop_fanout::min_value               0                       # Request fanout histogram
system.membus.snoop_fanout::max_value               0                       # Request fanout histogram
system.membus.snoop_fanout::total                1308                       # Request fanout histogram
system.membus.reqLayer0.occupancy             1619500                       # Layer occupancy (ticks)
system.membus.reqLayer0.utilization               2.5                       # Layer utilization (%)
system.membus.respLayer1.occupancy            6593750                       # Layer occupancy (ticks)
system.membus.respLayer1.utilization             10.3                       # Layer utilization (%)
system.membus.power_state.pwrStateResidencyTicks::UNDEFINED     63939500                       # Cumulative time (in ticks) in various power states
system.tol2bus.trans_dist::ReadResp              1704                       # Transaction distribution
system.tol2bus.trans_dist::WritebackDirty            5                       # Transaction distribution
system.tol2bus.trans_dist::WritebackClean         1265                       # Transaction distribution
system.tol2bus.trans_dist::CleanEvict               9                       # Transaction distribution
system.tol2bus.trans_dist::ReadExReq              179                       # Transaction distribution
system.tol2bus.trans_dist::ReadExResp             179                       # Transaction distribution
system.tol2bus.trans_dist::ReadCleanReq          1523                       # Transaction distribution
system.tol2bus.trans_dist::ReadSharedReq          183                       # Transaction distribution
system.tol2bus.trans_dist::InvalidateReq           64                       # Transaction distribution
system.tol2bus.trans_dist::InvalidateResp           64                       # Transaction distribution
system.tol2bus.pkt_count_system.cpu.icache.mem_side::system.l2.cpu_side         4309                       # Packet count per connected master and slave (bytes)
system.tol2bus.pkt_count_system.cpu.dcache.mem_side::system.l2.cpu_side          866                       # Packet count per connected master and slave (bytes)
system.tol2bus.pkt_count::total                  5175                       # Packet count per connected master and slave (bytes)
system.tol2bus.pkt_size_system.cpu.icache.mem_side::system.l2.cpu_side       178304                       # Cumulative packet size per connected master and slave (bytes)
system.tol2bus.pkt_size_system.cpu.dcache.mem_side::system.l2.cpu_side        23488                       # Cumulative packet size per connected master and slave (bytes)
system.tol2bus.pkt_size::total                 201792                       # Cumulative packet size per connected master and slave (bytes)
system.tol2bus.snoops                               0                       # Total snoops (count)
system.tol2bus.snoopTraffic                         0                       # Total snoop traffic (bytes)
system.tol2bus.snoop_fanout::samples             1949                       # Request fanout histogram
system.tol2bus.snoop_fanout::mean            0.002052                       # Request fanout histogram
system.tol2bus.snoop_fanout::stdev           0.045268                       # Request fanout histogram
system.tol2bus.snoop_fanout::underflows             0      0.00%      0.00% # Request fanout histogram
system.tol2bus.snoop_fanout::0                   1945     99.79%     99.79% # Request fanout histogram
system.tol2bus.snoop_fanout::1                      4      0.21%    100.00% # Request fanout histogram
system.tol2bus.snoop_fanout::2                      0      0.00%    100.00% # Request fanout histogram
system.tol2bus.snoop_fanout::overflows              0      0.00%    100.00% # Request fanout histogram
system.tol2bus.snoop_fanout::min_value              0                       # Request fanout histogram
system.tol2bus.snoop_fanout::max_value              1                       # Request fanout histogram
system.tol2bus.snoop_fanout::total               1949                       # Request fanout histogram
system.tol2bus.reqLayer0.occupancy            3012513                       # Layer occupancy (ticks)
system.tol2bus.reqLayer0.utilization              4.7                       # Layer utilization (%)
system.tol2bus.respLayer1.occupancy            576497                       # Layer occupancy (ticks)
system.tol2bus.respLayer1.utilization             0.9                       # Layer utilization (%)
system.tol2bus.respLayer0.occupancy           2281500                       # Layer occupancy (ticks)
system.tol2bus.respLayer0.utilization             3.6                       # Layer utilization (%)
system.tol2bus.power_state.pwrStateResidencyTicks::UNDEFINED     63939500                       # Cumulative time (in ticks) in various power states
system.voltage_domain.voltage                       1                       # Voltage in Volts
system.clk_domain.clock                          1000                       # Clock period in ticks
system.l2.demand_hits::.cpu.inst                  265                       # number of demand (read+write) hits
system.l2.demand_hits::.cpu.data                    5                       # number of demand (read+write) hits
system.l2.demand_hits::.cpu.icache.prefetcher          370                       # number of demand (read+write) hits
system.l2.demand_hits::total                      640                       # number of demand (read+write) hits
system.l2.overall_hits::.cpu.inst                 265                       # number of overall hits
system.l2.overall_hits::.cpu.data                   5                       # number of overall hits
system.l2.overall_hits::.cpu.icache.prefetcher          370                       # number of overall hits
system.l2.overall_hits::total                     640                       # number of overall hits
system.l2.demand_misses::.cpu.inst                888                       # number of demand (read+write) misses
system.l2.demand_misses::.cpu.data                357                       # number of demand (read+write) misses
system.l2.demand_misses::total                   1245                       # number of demand (read+write) misses
system.l2.overall_misses::.cpu.inst               888                       # number of overall misses
system.l2.overall_misses::.cpu.data               357                       # number of overall misses
system.l2.overall_misses::total                  1245                       # number of overall misses
system.l2.demand_miss_latency::.cpu.inst     69405000                       # number of demand (read+write) miss cycles
system.l2.demand_miss_latency::.cpu.data     30275000                       # number of demand (read+write) miss cycles
system.l2.demand_miss_latency::total         99680000                       # number of demand (read+write) miss cycles
system.l2.overall_miss_latency::.cpu.inst     69405000                       # number of overall miss cycles
system.l2.overall_miss_latency::.cpu.data     30275000                       # number of overall miss cycles
system.l2.overall_miss_latency::total        99680000                       # number of overall miss cycles
system.l2.demand_accesses::.cpu.inst             1153                       # number of demand (read+write) accesses
system.l2.demand_accesses::.cpu.data              362                       # number of demand (read+write) accesses
system.l2.demand_accesses::.cpu.icache.prefetcher          370                       # number of demand (read+write) accesses
system.l2.demand_accesses::total                 1885                       # number of demand (read+write) accesses
system.l2.overall_accesses::.cpu.inst            1153                       # number of overall (read+write) accesses
system.l2.overall_accesses::.cpu.data             362                       # number of overall (read+write) accesses
system.l2.overall_accesses::.cpu.icache.prefetcher          370                       # number of overall (read+write) accesses
system.l2.overall_accesses::total                1885                       # number of overall (read+write) accesses
system.l2.demand_miss_rate::.cpu.inst        0.770165                       # miss rate for demand accesses
system.l2.demand_miss_rate::.cpu.data        0.986188                       # miss rate for demand accesses
system.l2.demand_miss_rate::total            0.660477                       # miss rate for demand accesses
system.l2.overall_miss_rate::.cpu.inst       0.770165                       # miss rate for overall accesses
system.l2.overall_miss_rate::.cpu.data       0.986188                       # miss rate for overall accesses
system.l2.overall_miss_rate::total           0.660477                       # miss rate for overall accesses
system.l2.demand_avg_miss_latency::.cpu.inst 78158.783784                       # average overall miss latency
system.l2.demand_avg_miss_latency::.cpu.data 84803.921569                       # average overall miss latency
system.l2.demand_avg_miss_latency::total 80064.257028                       # average overall miss latency
system.l2.overall_avg_miss_latency::.cpu.inst 78158.783784                       # average overall miss latency
system.l2.overall_avg_miss_latency::.cpu.data 84803.921569                       # average overall miss latency
system.l2.overall_avg_miss_latency::total 80064.257028                       # average overall miss latency
system.l2.blocked_cycles::no_mshrs                  0                       # number of cycles access was blocked
system.l2.blocked_cycles::no_targets                0                       # number of cycles access was blocked
system.l2.blocked::no_mshrs                         0                       # number of cycles access was blocked
system.l2.blocked::no_targets                       0                       # number of cycles access was blocked
system.l2.avg_blocked_cycles::no_mshrs            nan                       # average number of cycles each access was blocked
system.l2.avg_blocked_cycles::no_targets          nan                       # average number of cycles each access was blocked
system.l2.demand_mshr_misses::.cpu.inst           888                       # number of demand (read+write) MSHR misses
system.l2.demand_mshr_misses::.cpu.data           357                       # number of demand (read+write) MSHR misses
system.l2.demand_mshr_misses::total              1245                       # number of demand (read+write) MSHR misses
system.l2.overall_mshr_misses::.cpu.inst          888                       # number of overall MSHR misses
system.l2.overall_mshr_misses::.cpu.data          357                       # number of overall MSHR misses
system.l2.overall_mshr_misses::total             1245                       # number of overall MSHR misses
system.l2.demand_mshr_miss_latency::.cpu.inst     60545000                       # number of demand (read+write) MSHR miss cycles
system.l2.demand_mshr_miss_latency::.cpu.data     26705000                       # number of demand (read+write) MSHR miss cycles
system.l2.demand_mshr_miss_latency::total     87250000                       # number of demand (read+write) MSHR miss cycles
system.l2.overall_mshr_miss_latency::.cpu.inst     60545000                       # number of overall MSHR miss cycles
system.l2.overall_mshr_miss_latency::.cpu.data     26705000                       # number of overall MSHR miss cycles
system.l2.overall_mshr_miss_latency::total     87250000                       # number of overall MSHR miss cycles
system.l2.demand_mshr_miss_rate::.cpu.inst     0.770165                       # mshr miss rate for demand accesses
system.l2.demand_mshr_miss_rate::.cpu.data     0.986188                       # mshr miss rate for demand accesses
system.l2.demand_mshr_miss_rate::total       0.660477                       # mshr miss rate for demand accesses
system.l2.overall_mshr_miss_rate::.cpu.inst     0.770165                       # mshr miss rate for overall accesses
system.l2.overall_mshr_miss_rate::.cpu.data     0.986188                       # mshr miss rate for overall accesses
system.l2.overall_mshr_miss_rate::total      0.660477                       # mshr miss rate for overall accesses
system.l2.demand_avg_mshr_miss_latency::.cpu.inst 68181.306306                       # average overall mshr miss latency
system.l2.demand_avg_mshr_miss_latency::.cpu.data 74803.921569                       # average overall mshr miss latency
system.l2.demand_avg_mshr_miss_latency::total 70080.321285                       # average overall mshr miss latency
system.l2.overall_avg_mshr_miss_latency::.cpu.inst 68181.306306                       # average overall mshr miss latency
system.l2.overall_avg_mshr_miss_latency::.cpu.data 74803.921569                       # average overall mshr miss latency
system.l2.overall_avg_mshr_miss_latency::total 70080.321285                       # average overall mshr miss latency
system.l2.replacements                              0                       # number of replacements
system.l2.WritebackDirty_hits::.writebacks            5                       # number of WritebackDirty hits
system.l2.WritebackDirty_hits::total                5                       # number of WritebackDirty hits
system.l2.WritebackDirty_accesses::.writebacks            5                       # number of WritebackDirty accesses(hits+misses)
system.l2.WritebackDirty_accesses::total            5                       # number of WritebackDirty accesses(hits+misses)
system.l2.WritebackClean_hits::.writebacks         1262                       # number of WritebackClean hits
system.l2.WritebackClean_hits::total             1262                       # number of WritebackClean hits
system.l2.WritebackClean_accesses::.writebacks         1262                       # number of WritebackClean accesses(hits+misses)
system.l2.WritebackClean_accesses::total         1262                       # number of WritebackClean accesses(hits+misses)
system.l2.ReadExReq_hits::.cpu.data                 2                       # number of ReadExReq hits
system.l2.ReadExReq_hits::total                     2                       # number of ReadExReq hits
system.l2.ReadExReq_misses::.cpu.data             177                       # number of ReadExReq misses
system.l2.ReadExReq_misses::total                 177                       # number of ReadExReq misses
system.l2.ReadExReq_miss_latency::.cpu.data     14674000                       # number of ReadExReq miss cycles
system.l2.ReadExReq_miss_latency::total      14674000                       # number of ReadExReq miss cycles
system.l2.ReadExReq_accesses::.cpu.data           179                       # number of ReadExReq accesses(hits+misses)
system.l2.ReadExReq_accesses::total               179                       # number of ReadExReq accesses(hits+misses)
system.l2.ReadExReq_miss_rate::.cpu.data     0.988827                       # miss rate for ReadExReq accesses
system.l2.ReadExReq_miss_rate::total         0.988827                       # miss rate for ReadExReq accesses
system.l2.ReadExReq_avg_miss_latency::.cpu.data 82903.954802                       # average ReadExReq miss latency
system.l2.ReadExReq_avg_miss_latency::total 82903.954802                       # average ReadExReq miss latency
system.l2.ReadExReq_mshr_misses::.cpu.data          177                       # number of ReadExReq MSHR misses
system.l2.ReadExReq_mshr_misses::total            177                       # number of ReadExReq MSHR misses
system.l2.ReadExReq_mshr_miss_latency::.cpu.data     12904000                       # number of ReadExReq MSHR miss cycles
system.l2.ReadExReq_mshr_miss_latency::total     12904000                       # number of ReadExReq MSHR miss cycles
system.l2.ReadExReq_mshr_miss_rate::.cpu.data     0.988827                       # mshr miss rate for ReadExReq accesses
system.l2.ReadExReq_mshr_miss_rate::total     0.988827                       # mshr miss rate for ReadExReq accesses
system.l2.ReadExReq_avg_mshr_miss_latency::.cpu.data 72903.954802                       # average ReadExReq mshr miss latency
system.l2.ReadExReq_avg_mshr_miss_latency::total 72903.954802                       # average ReadExReq mshr miss latency
system.l2.ReadCleanReq_hits::.cpu.inst            265                       # number of ReadCleanReq hits
system.l2.ReadCleanReq_hits::.cpu.icache.prefetcher          370                       # number of ReadCleanReq hits
system.l2.ReadCleanReq_hits::total                635                       # number of ReadCleanReq hits
system.l2.ReadCleanReq_misses::.cpu.inst          888                       # number of ReadCleanReq misses
system.l2.ReadCleanReq_misses::total              888                       # number of ReadCleanReq misses
system.l2.ReadCleanReq_miss_latency::.cpu.inst     69405000                       # number of ReadCleanReq miss cycles
system.l2.ReadCleanReq_miss_latency::total     69405000                       # number of ReadCleanReq miss cycles
system.l2.ReadCleanReq_accesses::.cpu.inst         1153                       # number of ReadCleanReq accesses(hits+misses)
system.l2.ReadCleanReq_accesses::.cpu.icache.prefetcher          370                       # number of ReadCleanReq accesses(hits+misses)
system.l2.ReadCleanReq_accesses::total           1523                       # number of ReadCleanReq accesses(hits+misses)
[...]
system.cpu.dcache.overall_misses::total          1427                       # number of overall misses
system.cpu.dcache.demand_miss_latency::.cpu.data     97924921                       # number of demand (read+write) miss cycles
system.cpu.dcache.demand_miss_latency::total     97924921                       # number of demand (read+write) miss cycles
system.cpu.dcache.overall_miss_latency::.cpu.data     97924921                       # number of overall miss cycles
system.cpu.dcache.overall_miss_latency::total     97924921                       # number of overall miss cycles
system.cpu.dcache.demand_accesses::.cpu.data        13319                       # number of demand (read+write) accesses
system.cpu.dcache.demand_accesses::total        13319                       # number of demand (read+write) accesses
system.cpu.dcache.overall_accesses::.cpu.data        13347                       # number of overall (read+write) accesses
system.cpu.dcache.overall_accesses::total        13347                       # number of overall (read+write) accesses
system.cpu.dcache.demand_miss_rate::.cpu.data     0.106765                       # miss rate for demand accesses
system.cpu.dcache.demand_miss_rate::total     0.106765                       # miss rate for demand accesses
system.cpu.dcache.overall_miss_rate::.cpu.data     0.106915                       # miss rate for overall accesses
system.cpu.dcache.overall_miss_rate::total     0.106915                       # miss rate for overall accesses
system.cpu.dcache.demand_avg_miss_latency::.cpu.data 68864.220113                       # average overall miss latency
system.cpu.dcache.demand_avg_miss_latency::total 68864.220113                       # average overall miss latency
system.cpu.dcache.overall_avg_miss_latency::.cpu.data 68622.929923                       # average overall miss latency
system.cpu.dcache.overall_avg_miss_latency::total 68622.929923                       # average overall miss latency
system.cpu.dcache.blocked_cycles::no_mshrs         3826                       # number of cycles access was blocked
system.cpu.dcache.blocked_cycles::no_targets            0                       # number of cycles access was blocked
system.cpu.dcache.blocked::no_mshrs               108                       # number of cycles access was blocked
system.cpu.dcache.blocked::no_targets               0                       # number of cycles access was blocked
system.cpu.dcache.avg_blocked_cycles::no_mshrs    35.425926                       # average number of cycles each access was blocked
system.cpu.dcache.avg_blocked_cycles::no_targets          nan                       # average number of cycles each access was blocked
system.cpu.dcache.writebacks::.writebacks            5                       # number of writebacks
system.cpu.dcache.writebacks::total                 5                       # number of writebacks
system.cpu.dcache.demand_mshr_hits::.cpu.data         1002                       # number of demand (read+write) MSHR hits
system.cpu.dcache.demand_mshr_hits::total         1002                       # number of demand (read+write) MSHR hits
system.cpu.dcache.overall_mshr_hits::.cpu.data         1002                       # number of overall MSHR hits
system.cpu.dcache.overall_mshr_hits::total         1002                       # number of overall MSHR hits
system.cpu.dcache.demand_mshr_misses::.cpu.data          420                       # number of demand (read+write) MSHR misses
system.cpu.dcache.demand_mshr_misses::total          420                       # number of demand (read+write) MSHR misses
system.cpu.dcache.overall_mshr_misses::.cpu.data          425                       # number of overall MSHR misses
system.cpu.dcache.overall_mshr_misses::total          425                       # number of overall MSHR misses
system.cpu.dcache.demand_mshr_miss_latency::.cpu.data     32034957                       # number of demand (read+write) MSHR miss cycles
system.cpu.dcache.demand_mshr_miss_latency::total     32034957                       # number of demand (read+write) MSHR miss cycles
system.cpu.dcache.overall_mshr_miss_latency::.cpu.data     32495457                       # number of overall MSHR miss cycles
system.cpu.dcache.overall_mshr_miss_latency::total     32495457                       # number of overall MSHR miss cycles
system.cpu.dcache.demand_mshr_miss_rate::.cpu.data     0.031534                       # mshr miss rate for demand accesses
system.cpu.dcache.demand_mshr_miss_rate::total     0.031534                       # mshr miss rate for demand accesses
system.cpu.dcache.overall_mshr_miss_rate::.cpu.data     0.031842                       # mshr miss rate for overall accesses
system.cpu.dcache.overall_mshr_miss_rate::total     0.031842                       # mshr miss rate for overall accesses
system.cpu.dcache.demand_avg_mshr_miss_latency::.cpu.data 76273.707143                       # average overall mshr miss latency
system.cpu.dcache.demand_avg_mshr_miss_latency::total 76273.707143                       # average overall mshr miss latency
system.cpu.dcache.overall_avg_mshr_miss_latency::.cpu.data 76459.898824                       # average overall mshr miss latency
system.cpu.dcache.overall_avg_mshr_miss_latency::total 76459.898824                       # average overall mshr miss latency
system.cpu.dcache.replacements                     14                       # number of replacements
system.cpu.dcache.ReadReq_hits::.cpu.data         6800                       # number of ReadReq hits
system.cpu.dcache.ReadReq_hits::total            6800                       # number of ReadReq hits
system.cpu.dcache.ReadReq_misses::.cpu.data          436                       # number of ReadReq misses
system.cpu.dcache.ReadReq_misses::total           436                       # number of ReadReq misses
system.cpu.dcache.ReadReq_miss_latency::.cpu.data     30715000                       # number of ReadReq miss cycles
system.cpu.dcache.ReadReq_miss_latency::total     30715000                       # number of ReadReq miss cycles
system.cpu.dcache.ReadReq_accesses::.cpu.data         7236                       # number of ReadReq accesses(hits+misses)
system.cpu.dcache.ReadReq_accesses::total         7236                       # number of ReadReq accesses(hits+misses)
system.cpu.dcache.ReadReq_miss_rate::.cpu.data     0.060254                       # miss rate for ReadReq accesses
system.cpu.dcache.ReadReq_miss_rate::total     0.060254                       # miss rate for ReadReq accesses
system.cpu.dcache.ReadReq_avg_miss_latency::.cpu.data 70447.247706                       # average ReadReq miss latency
system.cpu.dcache.ReadReq_avg_miss_latency::total 70447.247706                       # average ReadReq miss latency
system.cpu.dcache.ReadReq_mshr_hits::.cpu.data          259                       # number of ReadReq MSHR hits
system.cpu.dcache.ReadReq_mshr_hits::total          259                       # number of ReadReq MSHR hits
system.cpu.dcache.ReadReq_mshr_misses::.cpu.data          177                       # number of ReadReq MSHR misses
system.cpu.dcache.ReadReq_mshr_misses::total          177                       # number of ReadReq MSHR misses
system.cpu.dcache.ReadReq_mshr_miss_latency::.cpu.data     15088500                       # number of ReadReq MSHR miss cycles
system.cpu.dcache.ReadReq_mshr_miss_latency::total     15088500                       # number of ReadReq MSHR miss cycles
system.cpu.dcache.ReadReq_mshr_miss_rate::.cpu.data     0.024461                       # mshr miss rate for ReadReq accesses
system.cpu.dcache.ReadReq_mshr_miss_rate::total     0.024461                       # mshr miss rate for ReadReq accesses
system.cpu.dcache.ReadReq_avg_mshr_miss_latency::.cpu.data 85245.762712                       # average ReadReq mshr miss latency
system.cpu.dcache.ReadReq_avg_mshr_miss_latency::total 85245.762712                       # average ReadReq mshr miss latency
system.cpu.dcache.WriteReq_hits::.cpu.data         5097                       # number of WriteReq hits
system.cpu.dcache.WriteReq_hits::total           5097                       # number of WriteReq hits
system.cpu.dcache.WriteReq_misses::.cpu.data          926                       # number of WriteReq misses
system.cpu.dcache.WriteReq_misses::total          926                       # number of WriteReq misses
system.cpu.dcache.WriteReq_miss_latency::.cpu.data     65302956                       # number of WriteReq miss cycles
system.cpu.dcache.WriteReq_miss_latency::total     65302956                       # number of WriteReq miss cycles
system.cpu.dcache.WriteReq_accesses::.cpu.data         6023                       # number of WriteReq accesses(hits+misses)
system.cpu.dcache.WriteReq_accesses::total         6023                       # number of WriteReq accesses(hits+misses)
system.cpu.dcache.WriteReq_miss_rate::.cpu.data     0.153744                       # miss rate for WriteReq accesses
system.cpu.dcache.WriteReq_miss_rate::total     0.153744                       # miss rate for WriteReq accesses
system.cpu.dcache.WriteReq_avg_miss_latency::.cpu.data 70521.550756                       # average WriteReq miss latency
system.cpu.dcache.WriteReq_avg_miss_latency::total 70521.550756                       # average WriteReq miss latency
system.cpu.dcache.WriteReq_mshr_hits::.cpu.data          743                       # number of WriteReq MSHR hits
system.cpu.dcache.WriteReq_mshr_hits::total          743                       # number of WriteReq MSHR hits
system.cpu.dcache.WriteReq_mshr_misses::.cpu.data          183                       # number of WriteReq MSHR misses
system.cpu.dcache.WriteReq_mshr_misses::total          183                       # number of WriteReq MSHR misses
system.cpu.dcache.WriteReq_mshr_miss_latency::.cpu.data     15099492                       # number of WriteReq MSHR miss cycles
system.cpu.dcache.WriteReq_mshr_miss_latency::total     15099492                       # number of WriteReq MSHR miss cycles
system.cpu.dcache.WriteReq_mshr_miss_rate::.cpu.data     0.030384                       # mshr miss rate for WriteReq accesses
system.cpu.dcache.WriteReq_mshr_miss_rate::total     0.030384                       # mshr miss rate for WriteReq accesses
system.cpu.dcache.WriteReq_avg_mshr_miss_latency::.cpu.data 82510.885246                       # average WriteReq mshr miss latency
system.cpu.dcache.WriteReq_avg_mshr_miss_latency::total 82510.885246                       # average WriteReq mshr miss latency
system.cpu.dcache.SoftPFReq_hits::.cpu.data           23                       # number of SoftPFReq hits
system.cpu.dcache.SoftPFReq_hits::total            23                       # number of SoftPFReq hits
system.cpu.dcache.SoftPFReq_misses::.cpu.data            5                       # number of SoftPFReq misses
system.cpu.dcache.SoftPFReq_misses::total            5                       # number of SoftPFReq misses
system.cpu.dcache.SoftPFReq_accesses::.cpu.data           28                       # number of SoftPFReq accesses(hits+misses)
system.cpu.dcache.SoftPFReq_accesses::total           28                       # number of SoftPFReq accesses(hits+misses)
system.cpu.dcache.SoftPFReq_miss_rate::.cpu.data     0.178571                       # miss rate for SoftPFReq accesses
system.cpu.dcache.SoftPFReq_miss_rate::total     0.178571                       # miss rate for SoftPFReq accesses
system.cpu.dcache.SoftPFReq_mshr_misses::.cpu.data            5                       # number of SoftPFReq MSHR misses
system.cpu.dcache.SoftPFReq_mshr_misses::total            5                       # number of SoftPFReq MSHR misses
system.cpu.dcache.SoftPFReq_mshr_miss_latency::.cpu.data       460500                       # number of SoftPFReq MSHR miss cycles
system.cpu.dcache.SoftPFReq_mshr_miss_latency::total       460500                       # number of SoftPFReq MSHR miss cycles
system.cpu.dcache.SoftPFReq_mshr_miss_rate::.cpu.data     0.178571                       # mshr miss rate for SoftPFReq accesses
system.cpu.dcache.SoftPFReq_mshr_miss_rate::total     0.178571                       # mshr miss rate for SoftPFReq accesses
system.cpu.dcache.SoftPFReq_avg_mshr_miss_latency::.cpu.data        92100                       # average SoftPFReq mshr miss latency
system.cpu.dcache.SoftPFReq_avg_mshr_miss_latency::total        92100                       # average SoftPFReq mshr miss latency
system.cpu.dcache.WriteLineReq_misses::.cpu.data           60                       # number of WriteLineReq misses
system.cpu.dcache.WriteLineReq_misses::total           60                       # number of WriteLineReq misses
system.cpu.dcache.WriteLineReq_miss_latency::.cpu.data      1906965                       # number of WriteLineReq miss cycles
system.cpu.dcache.WriteLineReq_miss_latency::total      1906965                       # number of WriteLineReq miss cycles
system.cpu.dcache.WriteLineReq_accesses::.cpu.data           60                       # number of WriteLineReq accesses(hits+misses)
system.cpu.dcache.WriteLineReq_accesses::total           60                       # number of WriteLineReq accesses(hits+misses)
system.cpu.dcache.WriteLineReq_miss_rate::.cpu.data            1                       # miss rate for WriteLineReq accesses
system.cpu.dcache.WriteLineReq_miss_rate::total            1                       # miss rate for WriteLineReq accesses
system.cpu.dcache.WriteLineReq_avg_miss_latency::.cpu.data 31782.750000                       # average WriteLineReq miss latency
system.cpu.dcache.WriteLineReq_avg_miss_latency::total 31782.750000                       # average WriteLineReq miss latency
system.cpu.dcache.WriteLineReq_mshr_misses::.cpu.data           60                       # number of WriteLineReq MSHR misses
system.cpu.dcache.WriteLineReq_mshr_misses::total           60                       # number of WriteLineReq MSHR misses
system.cpu.dcache.WriteLineReq_mshr_miss_latency::.cpu.data      1846965                       # number of WriteLineReq MSHR miss cycles
system.cpu.dcache.WriteLineReq_mshr_miss_latency::total      1846965                       # number of WriteLineReq MSHR miss cycles
system.cpu.dcache.WriteLineReq_mshr_miss_rate::.cpu.data            1                       # mshr miss rate for WriteLineReq accesses
system.cpu.dcache.WriteLineReq_mshr_miss_rate::total            1                       # mshr miss rate for WriteLineReq accesses
system.cpu.dcache.WriteLineReq_avg_mshr_miss_latency::.cpu.data 30782.750000                       # average WriteLineReq mshr miss latency
system.cpu.dcache.WriteLineReq_avg_mshr_miss_latency::total 30782.750000                       # average WriteLineReq mshr miss latency
system.cpu.dcache.LoadLockedReq_hits::.cpu.data           34                       # number of LoadLockedReq hits
system.cpu.dcache.LoadLockedReq_hits::total           34                       # number of LoadLockedReq hits
system.cpu.dcache.LoadLockedReq_misses::.cpu.data            1                       # number of LoadLockedReq misses
system.cpu.dcache.LoadLockedReq_misses::total            1                       # number of LoadLockedReq misses
system.cpu.dcache.LoadLockedReq_miss_latency::.cpu.data       365500                       # number of LoadLockedReq miss cycles
system.cpu.dcache.LoadLockedReq_miss_latency::total       365500                       # number of LoadLockedReq miss cycles
system.cpu.dcache.LoadLockedReq_accesses::.cpu.data           35                       # number of LoadLockedReq accesses(hits+misses)
system.cpu.dcache.LoadLockedReq_accesses::total           35                       # number of LoadLockedReq accesses(hits+misses)
system.cpu.dcache.LoadLockedReq_miss_rate::.cpu.data     0.028571                       # miss rate for LoadLockedReq accesses
system.cpu.dcache.LoadLockedReq_miss_rate::total     0.028571                       # miss rate for LoadLockedReq accesses
system.cpu.dcache.LoadLockedReq_avg_miss_latency::.cpu.data       365500                       # average LoadLockedReq miss latency
system.cpu.dcache.LoadLockedReq_avg_miss_latency::total       365500                       # average LoadLockedReq miss latency
system.cpu.dcache.LoadLockedReq_mshr_misses::.cpu.data            1                       # number of LoadLockedReq MSHR misses
system.cpu.dcache.LoadLockedReq_mshr_misses::total            1                       # number of LoadLockedReq MSHR misses
system.cpu.dcache.LoadLockedReq_mshr_miss_latency::.cpu.data       364500                       # number of LoadLockedReq MSHR miss cycles
system.cpu.dcache.LoadLockedReq_mshr_miss_latency::total       364500                       # number of LoadLockedReq MSHR miss cycles
system.cpu.dcache.LoadLockedReq_mshr_miss_rate::.cpu.data     0.028571                       # mshr miss rate for LoadLockedReq accesses
system.cpu.dcache.LoadLockedReq_mshr_miss_rate::total     0.028571                       # mshr miss rate for LoadLockedReq accesses
system.cpu.dcache.LoadLockedReq_avg_mshr_miss_latency::.cpu.data       364500                       # average LoadLockedReq mshr miss latency
system.cpu.dcache.LoadLockedReq_avg_mshr_miss_latency::total       364500                       # average LoadLockedReq mshr miss latency
system.cpu.dcache.StoreCondReq_hits::.cpu.data           24                       # number of StoreCondReq hits
system.cpu.dcache.StoreCondReq_hits::total           24                       # number of StoreCondReq hits
system.cpu.dcache.StoreCondReq_accesses::.cpu.data           24                       # number of StoreCondReq accesses(hits+misses)
system.cpu.dcache.StoreCondReq_accesses::total           24                       # number of StoreCondReq accesses(hits+misses)
system.cpu.dcache.power_state.pwrStateResidencyTicks::UNDEFINED     63939500                       # Cumulative time (in ticks) in various power states
system.cpu.dcache.tags.tagsinuse           254.994169                       # Cycle average of tags in use
system.cpu.dcache.tags.total_refs               12404                       # Total number of references to valid blocks.
system.cpu.dcache.tags.sampled_refs               426                       # Sample count of references to valid blocks.
system.cpu.dcache.tags.avg_refs             29.117371                       # Average number of references to valid blocks.
system.cpu.dcache.tags.warmup_cycle            176500                       # Cycle when the warmup percentage was hit.
system.cpu.dcache.tags.occ_blocks::.cpu.data   254.994169                       # Average occupied blocks per requestor
system.cpu.dcache.tags.occ_percent::.cpu.data     0.249018                       # Average percentage of cache occupancy
system.cpu.dcache.tags.occ_percent::total     0.249018                       # Average percentage of cache occupancy
system.cpu.dcache.tags.occ_task_id_blocks::1024          412                       # Occupied blocks per task id
system.cpu.dcache.tags.age_task_id_blocks_1024::0           30                       # Occupied blocks per task id
system.cpu.dcache.tags.age_task_id_blocks_1024::1          382                       # Occupied blocks per task id
system.cpu.dcache.tags.occ_task_id_percent::1024     0.402344                       # Percentage of cache occupancy per task id
system.cpu.dcache.tags.tag_accesses             27238                       # Number of tag accesses
system.cpu.dcache.tags.data_accesses            27238                       # Number of data accesses
system.cpu.dcache.tags.power_state.pwrStateResidencyTicks::UNDEFINED     63939500                       # Cumulative time (in ticks) in various power states
system.cpu.power_state.pwrStateResidencyTicks::ON     63939500                       # Cumulative time (in ticks) in various power states

---------- End Simulation Statistics   ----------
