
---------- Begin Simulation Statistics ----------
final_tick                                46993828500                       # Number of ticks from beginning of simulation (restored from checkpoints and never reset)
host_inst_rate                                  40184                       # Simulator instruction rate (inst/s)
host_mem_usage                                 896820                       # Number of bytes of host memory used
host_op_rate                                    91803                       # Simulator op (including micro ops) rate (op/s)
host_seconds                                   248.85                       # Real time elapsed on the host
host_tick_rate                              188841491                       # Simulator tick rate (ticks/s)
sim_freq                                 1000000000000                       # Frequency of simulated ticks
sim_insts                                    10000002                       # Number of instructions simulated
sim_ops                                      22845535                       # Number of ops (including micro ops) simulated
sim_seconds                                  0.046994                       # Number of seconds simulated
sim_ticks                                 46993828500                       # Number of ticks simulated
system.cpu.branchPred.BTBCorrect                    0                       # Number of correct BTB predictions (this stat may not work properly.
system.cpu.branchPred.BTBHitPct             99.894116                       # BTB Hit Percentage
system.cpu.branchPred.BTBHits                  798140                       # Number of BTB hits
system.cpu.branchPred.BTBLookups               798986                       # Number of BTB lookups
system.cpu.branchPred.RASInCorrect                  1                       # Number of incorrect RAS predictions.
system.cpu.branchPred.condIncorrect               735                       # Number of conditional branches incorrect
system.cpu.branchPred.condPredicted            800670                       # Number of conditional branches predicted
system.cpu.branchPred.indirectHits                 34                       # Number of indirect target hits.
system.cpu.branchPred.indirectLookups             201                       # Number of indirect predictor lookups.
system.cpu.branchPred.indirectMisses              167                       # Number of indirect misses.
system.cpu.branchPred.lookups                  802092                       # Number of BP lookups
system.cpu.branchPred.usedRAS                     464                       # Number of times the RAS was used to get a target.
system.cpu.branchPredindirectMispredicted           60                       # Number of mispredicted indirect branches.
system.cpu.cc_regfile_reads                   2228799                       # number of cc regfile reads
system.cpu.cc_regfile_writes                  2228714                       # number of cc regfile writes
system.cpu.commit.amos                              0                       # Number of atomic instructions committed
system.cpu.commit.branchMispredicts               513                       # The number of times a branch was mispredicted
system.cpu.commit.branches                     715717                       # Number of branches committed
system.cpu.commit.bw_lim_events                 33893                       # number cycles where commit BW limit reached
system.cpu.commit.commitNonSpecStalls              25                       # The number of times commit has been forced to stall to communicate backwards
system.cpu.commit.commitSquashedInsts         1116947                       # The number of squashed insts skipped by commit
system.cpu.commit.committedInsts             10000021                       # Number of instructions committed
system.cpu.commit.committedOps               22845554                       # Number of ops (including micro ops) committed
system.cpu.commit.committed_per_cycle::samples     93802911                       # Number of insts commited each cycle
system.cpu.commit.committed_per_cycle::mean     0.243548                       # Number of insts commited each cycle
system.cpu.commit.committed_per_cycle::stdev     0.937111                       # Number of insts commited each cycle
system.cpu.commit.committed_per_cycle::underflows            0      0.00%      0.00% # Number of insts commited each cycle
system.cpu.commit.committed_per_cycle::0     85450810     91.10%     91.10% # Number of insts commited each cycle
system.cpu.commit.committed_per_cycle::1      2121925      2.26%     93.36% # Number of insts commited each cycle
system.cpu.commit.committed_per_cycle::2      2680110      2.86%     96.22% # Number of insts commited each cycle
system.cpu.commit.committed_per_cycle::3      1975028      2.11%     98.32% # Number of insts commited each cycle
system.cpu.commit.committed_per_cycle::4        18358      0.02%     98.34% # Number of insts commited each cycle
system.cpu.commit.committed_per_cycle::5       298690      0.32%     98.66% # Number of insts commited each cycle
system.cpu.commit.committed_per_cycle::6       968380      1.03%     99.69% # Number of insts commited each cycle
system.cpu.commit.committed_per_cycle::7       255717      0.27%     99.96% # Number of insts commited each cycle
system.cpu.commit.committed_per_cycle::8        33893      0.04%    100.00% # Number of insts commited each cycle
system.cpu.commit.committed_per_cycle::overflows            0      0.00%    100.00% # Number of insts commited each cycle
system.cpu.commit.committed_per_cycle::min_value            0                       # Number of insts commited each cycle
system.cpu.commit.committed_per_cycle::max_value            8                       # Number of insts commited each cycle
system.cpu.commit.committed_per_cycle::total     93802911                       # Number of insts commited each cycle
system.cpu.commit.fp_insts                          0                       # Number of committed floating point instructions.
system.cpu.commit.function_calls                  212                       # Number of function calls committed.
system.cpu.commit.int_insts                  22130681                       # Number of committed integer instructions.
system.cpu.commit.loads                          1635                       # Number of loads committed
system.cpu.commit.membars                          14                       # Number of memory barriers committed
system.cpu.commit.op_class_0::No_OpClass           18      0.00%      0.00% # Class of committed instruction
system.cpu.commit.op_class_0::IntAlu          8570926     37.52%     37.52% # Class of committed instruction
system.cpu.commit.op_class_0::IntMult              35      0.00%     37.52% # Class of committed instruction
system.cpu.commit.op_class_0::IntDiv                3      0.00%     37.52% # Class of committed instruction
system.cpu.commit.op_class_0::FloatAdd              0      0.00%     37.52% # Class of committed instruction
system.cpu.commit.op_class_0::FloatCmp              2      0.00%     37.52% # Class of committed instruction
system.cpu.commit.op_class_0::FloatCvt              0      0.00%     37.52% # Class of committed instruction
system.cpu.commit.op_class_0::FloatMult             0      0.00%     37.52% # Class of committed instruction
system.cpu.commit.op_class_0::FloatMultAcc            0      0.00%     37.52% # Class of committed instruction
system.cpu.commit.op_class_0::FloatDiv              0      0.00%     37.52% # Class of committed instruction
system.cpu.commit.op_class_0::FloatMisc             5      0.00%     37.52% # Class of committed instruction
system.cpu.commit.op_class_0::FloatSqrt             0      0.00%     37.52% # Class of committed instruction
system.cpu.commit.op_class_0::SimdAdd              50      0.00%     37.52% # Class of committed instruction
system.cpu.commit.op_class_0::SimdAddAcc            0      0.00%     37.52% # Class of committed instruction
system.cpu.commit.op_class_0::SimdAlu              75      0.00%     37.52% # Class of committed instruction
system.cpu.commit.op_class_0::SimdCmp              72      0.00%     37.52% # Class of committed instruction
system.cpu.commit.op_class_0::SimdCvt               0      0.00%     37.52% # Class of committed instruction
system.cpu.commit.op_class_0::SimdMisc             50      0.00%     37.52% # Class of committed instruction
system.cpu.commit.op_class_0::SimdMult              0      0.00%     37.52% # Class of committed instruction
system.cpu.commit.op_class_0::SimdMultAcc            0      0.00%     37.52% # Class of committed instruction
system.cpu.commit.op_class_0::SimdShift             0      0.00%     37.52% # Class of committed instruction
system.cpu.commit.op_class_0::SimdShiftAcc            0      0.00%     37.52% # Class of committed instruction
system.cpu.commit.op_class_0::SimdDiv               0      0.00%     37.52% # Class of committed instruction
system.cpu.commit.op_class_0::SimdSqrt              0      0.00%     37.52% # Class of committed instruction
system.cpu.commit.op_class_0::SimdFloatAdd            0      0.00%     37.52% # Class of committed instruction
system.cpu.commit.op_class_0::SimdFloatAlu            0      0.00%     37.52% # Class of committed instruction
system.cpu.commit.op_class_0::SimdFloatCmp            0      0.00%     37.52% # Class of committed instruction
system.cpu.commit.op_class_0::SimdFloatCvt            0      0.00%     37.52% # Class of committed instruction
system.cpu.commit.op_class_0::SimdFloatDiv            0      0.00%     37.52% # Class of committed instruction
system.cpu.commit.op_class_0::SimdFloatMisc            0      0.00%     37.52% # Class of committed instruction
system.cpu.commit.op_class_0::SimdFloatMult            0      0.00%     37.52% # Class of committed instruction
system.cpu.commit.op_class_0::SimdFloatMultAcc            0      0.00%     37.52% # Class of committed instruction
system.cpu.commit.op_class_0::SimdFloatSqrt            0      0.00%     37.52% # Class of committed instruction
system.cpu.commit.op_class_0::SimdReduceAdd            0      0.00%     37.52% # Class of committed instruction
system.cpu.commit.op_class_0::SimdReduceAlu            0      0.00%     37.52% # Class of committed instruction
system.cpu.commit.op_class_0::SimdReduceCmp            0      0.00%     37.52% # Class of committed instruction
system.cpu.commit.op_class_0::SimdFloatReduceAdd            0      0.00%     37.52% # Class of committed instruction
system.cpu.commit.op_class_0::SimdFloatReduceCmp            0      0.00%     37.52% # Class of committed instruction
system.cpu.commit.op_class_0::SimdAes               0      0.00%     37.52% # Class of committed instruction
system.cpu.commit.op_class_0::SimdAesMix            0      0.00%     37.52% # Class of committed instruction
system.cpu.commit.op_class_0::SimdSha1Hash            0      0.00%     37.52% # Class of committed instruction
system.cpu.commit.op_class_0::SimdSha1Hash2            0      0.00%     37.52% # Class of committed instruction
system.cpu.commit.op_class_0::SimdSha256Hash            0      0.00%     37.52% # Class of committed instruction
system.cpu.commit.op_class_0::SimdSha256Hash2            0      0.00%     37.52% # Class of committed instruction
system.cpu.commit.op_class_0::SimdShaSigma2            0      0.00%     37.52% # Class of committed instruction
system.cpu.commit.op_class_0::SimdShaSigma3            0      0.00%     37.52% # Class of committed instruction
system.cpu.commit.op_class_0::SimdPredAlu            0      0.00%     37.52% # Class of committed instruction
system.cpu.commit.op_class_0::MemRead            1635      0.01%     37.53% # Class of committed instruction
system.cpu.commit.op_class_0::MemWrite       14272683     62.47%    100.00% # Class of committed instruction
system.cpu.commit.op_class_0::FloatMemRead            0      0.00%    100.00% # Class of committed instruction
system.cpu.commit.op_class_0::FloatMemWrite            0      0.00%    100.00% # Class of committed instruction
system.cpu.commit.op_class_0::IprAccess             0      0.00%    100.00% # Class of committed instruction
system.cpu.commit.op_class_0::InstPrefetch            0      0.00%    100.00% # Class of committed instruction
system.cpu.commit.op_class_0::total          22845554                       # Class of committed instruction
system.cpu.commit.refs                       14274318                       # Number of memory references committed
system.cpu.commit.swp_count                         0                       # Number of s/w prefetches committed
system.cpu.commit.vec_insts                  13557689                       # Number of committed Vector instructions.
system.cpu.committedInsts                    10000002                       # Number of Instructions Simulated
system.cpu.committedOps                      22845535                       # Number of Ops (including micro ops) Simulated
system.cpu.cpi                               9.398764                       # CPI: Cycles Per Instruction
system.cpu.cpi_total                         9.398764                       # CPI: Total CPI of All Threads
system.cpu.decode.BlockedCycles              89837827                       # Number of cycles decode is blocked
system.cpu.decode.BranchMispred                   225                       # Number of times decode detected a branch misprediction
system.cpu.decode.BranchResolved               769587                       # Number of times decode resolved a branch
system.cpu.decode.DecodedInsts               24783849                       # Number of instructions handled by decode
system.cpu.decode.IdleCycles                   947476                       # Number of cycles decode is idle
system.cpu.decode.RunCycles                    739970                       # Number of cycles decode is running
system.cpu.decode.SquashCycles                  28412                       # Number of cycles decode is squashing
system.cpu.decode.SquashedInsts                   819                       # Number of squashed instructions handled by decode
system.cpu.decode.UnblockCycles               2390949                       # Number of cycles decode is unblocking
system.cpu.dtb.accesses                             0                       # DTB accesses
system.cpu.dtb.align_faults                         0                       # Number of TLB faults due to alignment restrictions
system.cpu.dtb.domain_faults                        0                       # Number of TLB faults due to domain restrictions
system.cpu.dtb.flush_entries                        0                       # Number of entries that have been flushed from TLB
system.cpu.dtb.flush_tlb                            0                       # Number of times complete TLB was flushed
system.cpu.dtb.flush_tlb_asid                       0                       # Number of times TLB was flushed by ASID
system.cpu.dtb.flush_tlb_mva                        0                       # Number of times TLB was flushed by MVA
system.cpu.dtb.flush_tlb_mva_asid                   0                       # Number of times TLB was flushed by MVA & ASID
system.cpu.dtb.hits                                 0                       # DTB hits
system.cpu.dtb.inst_accesses                        0                       # ITB inst accesses
system.cpu.dtb.inst_hits                            0                       # ITB inst hits
system.cpu.dtb.inst_misses                          0                       # ITB inst misses
system.cpu.dtb.misses                               0                       # DTB misses
system.cpu.dtb.perms_faults                         0                       # Number of TLB faults due to permissions restrictions
system.cpu.dtb.prefetch_faults                      0                       # Number of TLB faults due to prefetch
system.cpu.dtb.read_accesses                        0                       # DTB read accesses
system.cpu.dtb.read_hits                            0                       # DTB read hits
system.cpu.dtb.read_misses                          0                       # DTB read misses
system.cpu.dtb.stage2_mmu.stage2_tlb.accesses            0                       # DTB accesses
system.cpu.dtb.stage2_mmu.stage2_tlb.align_faults            0                       # Number of TLB faults due to alignment restrictions
system.cpu.dtb.stage2_mmu.stage2_tlb.domain_faults            0                       # Number of TLB faults due to domain restrictions
system.cpu.dtb.stage2_mmu.stage2_tlb.flush_entries            0                       # Number of entries that have been flushed from TLB
system.cpu.dtb.stage2_mmu.stage2_tlb.flush_tlb            0                       # Number of times complete TLB was flushed
system.cpu.dtb.stage2_mmu.stage2_tlb.flush_tlb_asid            0                       # Number of times TLB was flushed by ASID
system.cpu.dtb.stage2_mmu.stage2_tlb.flush_tlb_mva            0                       # Number of times TLB was flushed by MVA
system.cpu.dtb.stage2_mmu.stage2_tlb.flush_tlb_mva_asid            0                       # Number of times TLB was flushed by MVA & ASID
system.cpu.dtb.stage2_mmu.stage2_tlb.hits            0                       # DTB hits
system.cpu.dtb.stage2_mmu.stage2_tlb.inst_accesses            0                       # ITB inst accesses
system.cpu.dtb.stage2_mmu.stage2_tlb.inst_hits            0                       # ITB inst hits
system.cpu.dtb.stage2_mmu.stage2_tlb.inst_misses            0                       # ITB inst misses
system.cpu.dtb.stage2_mmu.stage2_tlb.misses            0                       # DTB misses
system.cpu.dtb.stage2_mmu.stage2_tlb.perms_faults            0                       # Number of TLB faults due to permissions restrictions
system.cpu.dtb.stage2_mmu.stage2_tlb.prefetch_faults            0                       # Number of TLB faults due to prefetch
system.cpu.dtb.stage2_mmu.stage2_tlb.read_accesses            0                       # DTB read accesses
system.cpu.dtb.stage2_mmu.stage2_tlb.read_hits            0                       # DTB read hits
system.cpu.dtb.stage2_mmu.stage2_tlb.read_misses            0                       # DTB read misses
system.cpu.dtb.stage2_mmu.stage2_tlb.walker.walkRequestOrigin_Requested::Data            0                       # Table walker requests started/completed, data/inst
system.cpu.dtb.stage2_mmu.stage2_tlb.walker.walkRequestOrigin_Requested::Inst            0                       # Table walker requests started/completed, data/inst
system.cpu.dtb.stage2_mmu.stage2_tlb.walker.walkRequestOrigin_Requested::total            0                       # Table walker requests started/completed, data/inst
system.cpu.dtb.stage2_mmu.stage2_tlb.walker.walkRequestOrigin_Completed::Data            0                       # Table walker requests started/completed, data/inst
system.cpu.dtb.stage2_mmu.stage2_tlb.walker.walkRequestOrigin_Completed::Inst            0                       # Table walker requests started/completed, data/inst
system.cpu.dtb.stage2_mmu.stage2_tlb.walker.walkRequestOrigin_Completed::total            0                       # Table walker requests started/completed, data/inst
system.cpu.dtb.stage2_mmu.stage2_tlb.walker.walkRequestOrigin::total            0                       # Table walker requests started/completed, data/inst
system.cpu.dtb.stage2_mmu.stage2_tlb.walker.walks            0                       # Table walker walks requested
system.cpu.dtb.stage2_mmu.stage2_tlb.write_accesses            0                       # DTB write accesses
system.cpu.dtb.stage2_mmu.stage2_tlb.write_hits            0                       # DTB write hits
system.cpu.dtb.stage2_mmu.stage2_tlb.write_misses            0                       # DTB write misses
system.cpu.dtb.walker.walkRequestOrigin_Requested::Data            0                       # Table walker requests started/completed, data/inst
system.cpu.dtb.walker.walkRequestOrigin_Requested::Inst            0                       # Table walker requests started/completed, data/inst
system.cpu.dtb.walker.walkRequestOrigin_Requested::total            0                       # Table walker requests started/completed, data/inst
system.cpu.dtb.walker.walkRequestOrigin_Completed::Data            0                       # Table walker requests started/completed, data/inst
system.cpu.dtb.walker.walkRequestOrigin_Completed::Inst            0                       # Table walker requests started/completed, data/inst
system.cpu.dtb.walker.walkRequestOrigin_Completed::total            0                       # Table walker requests started/completed, data/inst
system.cpu.dtb.walker.walkRequestOrigin::total            0                       # Table walker requests started/completed, data/inst
system.cpu.dtb.walker.walks                         0                       # Table walker walks requested
system.cpu.dtb.write_accesses                       0                       # DTB write accesses
system.cpu.dtb.write_hits                           0                       # DTB write hits
system.cpu.dtb.write_misses                         0                       # DTB write misses
system.cpu.fetch.Branches                      802092                       # Number of branches that fetch encountered
system.cpu.fetch.CacheLines                   1641845                       # Number of cache lines fetched
system.cpu.fetch.Cycles                      92238748                       # Number of cycles fetch has run and was not squashing or blocked
system.cpu.fetch.IcacheSquashes                   543                       # Number of outstanding Icache misses that were squashed
system.cpu.fetch.Insts                       11345995                       # Number of instructions fetch has processed
system.cpu.fetch.SquashCycles                   57268                       # Number of cycles fetch has spent squashing
system.cpu.fetch.branchRate                  0.008534                       # Number of branch fetches per cycle
system.cpu.fetch.icacheStallCycles            1677252                       # Number of cycles fetch is stalled on an Icache miss
system.cpu.fetch.predictedBranches             798638                       # Number of branches that fetch has predicted taken
system.cpu.fetch.rate                        0.120718                       # Number of inst fetches per cycle
system.cpu.fetch.rateDist::samples           93944634                       # Number of instructions fetched each cycle (Total)
system.cpu.fetch.rateDist::mean              0.276224                       # Number of instructions fetched each cycle (Total)
system.cpu.fetch.rateDist::stdev             1.387334                       # Number of instructions fetched each cycle (Total)
system.cpu.fetch.rateDist::underflows               0      0.00%      0.00% # Number of instructions fetched each cycle (Total)
system.cpu.fetch.rateDist::0                 89881903     95.68%     95.68% # Number of instructions fetched each cycle (Total)
system.cpu.fetch.rateDist::1                      423      0.00%     95.68% # Number of instructions fetched each cycle (Total)
system.cpu.fetch.rateDist::2                   819764      0.87%     96.55% # Number of instructions fetched each cycle (Total)
system.cpu.fetch.rateDist::3                      322      0.00%     96.55% # Number of instructions fetched each cycle (Total)
system.cpu.fetch.rateDist::4                      348      0.00%     96.55% # Number of instructions fetched each cycle (Total)
system.cpu.fetch.rateDist::5                      335      0.00%     96.55% # Number of instructions fetched each cycle (Total)
system.cpu.fetch.rateDist::6                   813180      0.87%     97.42% # Number of instructions fetched each cycle (Total)
system.cpu.fetch.rateDist::7                      205      0.00%     97.42% # Number of instructions fetched each cycle (Total)
system.cpu.fetch.rateDist::8                  2428154      2.58%    100.00% # Number of instructions fetched each cycle (Total)
system.cpu.fetch.rateDist::overflows                0      0.00%    100.00% # Number of instructions fetched each cycle (Total)
system.cpu.fetch.rateDist::min_value                0                       # Number of instructions fetched each cycle (Total)
system.cpu.fetch.rateDist::max_value                8                       # Number of instructions fetched each cycle (Total)
system.cpu.fetch.rateDist::total             93944634                       # Number of instructions fetched each cycle (Total)
system.cpu.icache.prefetcher.num_hwpf_issued         2202                       # number of hwpf issued
system.cpu.icache.prefetcher.pfBufferHit          401                       # number of redundant prefetches already in prefetch queue
system.cpu.icache.prefetcher.pfIdentified         2880                       # number of prefetch candidates identified
system.cpu.icache.prefetcher.pfInCache              0                       # number of redundant prefetches already in cache/mshr dropped
system.cpu.icache.prefetcher.pfRemovedFull          170                       # number of prefetches dropped due to prefetch queue size
system.cpu.icache.prefetcher.pfSpanPage         28175                       # number of prefetches that crossed the page
system.cpu.idleCycles                           43024                       # Total number of cycles that the CPU has spent unscheduled due to idling
system.cpu.iew.branchMispredicts                  601                       # Number of branch mispredicts detected at execute
system.cpu.iew.exec_branches                   744424                       # Number of branches executed
system.cpu.iew.exec_nop                            34                       # number of nop insts executed
system.cpu.iew.exec_rate                     0.258542                       # Inst execution rate
system.cpu.iew.exec_refs                     15195425                       # number of memory reference insts executed
system.cpu.iew.exec_stores                   15192839                       # Number of stores executed
system.cpu.iew.exec_swp                             0                       # number of swp insts executed
system.cpu.iew.iewBlockCycles                  114175                       # Number of cycles IEW is blocking
system.cpu.iew.iewDispLoadInsts                  2832                       # Number of dispatched load instructions
system.cpu.iew.iewDispNonSpecInsts                 34                       # Number of dispatched non-speculative instructions
system.cpu.iew.iewDispSquashedInsts               249                       # Number of squashed instructions skipped by dispatch
system.cpu.iew.iewDispStoreInsts             15193336                       # Number of dispatched store instructions
system.cpu.iew.iewDispatchedInsts            24302264                       # Number of instructions dispatched to IQ
system.cpu.iew.iewExecLoadInsts                  2586                       # Number of load instructions executed
system.cpu.iew.iewExecSquashedInsts               647                       # Number of squashed instructions skipped in execute
system.cpu.iew.iewExecutedInsts              24299793                       # Number of executed instructions
system.cpu.iew.iewIQFullEvents                      5                       # Number of times the IQ has become full, causing a stall
system.cpu.iew.iewIdleCycles                        0                       # Number of cycles IEW is idle
system.cpu.iew.iewLSQFullEvents              17990765                       # Number of times the LSQ has become full, causing a stall
system.cpu.iew.iewSquashCycles                  28412                       # Number of cycles IEW is squashing
system.cpu.iew.iewUnblockCycles              17963962                       # Number of cycles IEW is unblocking
system.cpu.iew.lsq.thread0.blockedLoads             0                       # Number of blocked loads due to partial load-store forwarding
system.cpu.iew.lsq.thread0.cacheBlocked             0                       # Number of times an access to memory failed due to the cache being blocked
system.cpu.iew.lsq.thread0.forwLoads               47                       # Number of loads that had data forwarded from stores
system.cpu.iew.lsq.thread0.ignoredResponses            3                       # Number of memory responses ignored because the instruction is squashed
system.cpu.iew.lsq.thread0.invAddrLoads             0                       # Number of loads ignored due to an invalid address
system.cpu.iew.lsq.thread0.invAddrSwpfs             0                       # Number of software prefetches ignored due to an invalid address
system.cpu.iew.lsq.thread0.memOrderViolation           15                       # Number of memory ordering violations
system.cpu.iew.lsq.thread0.rescheduledLoads           22                       # Number of loads that were rescheduled
system.cpu.iew.lsq.thread0.squashedLoads         1197                       # Number of loads squashed
system.cpu.iew.lsq.thread0.squashedStores       920652                       # Number of stores squashed
system.cpu.iew.memOrderViolationEvents             15                       # Number of memory order violations
system.cpu.iew.predictedNotTakenIncorrect          537                       # Number of branches that were predicted not taken incorrectly
system.cpu.iew.predictedTakenIncorrect             64                       # Number of branches that were predicted taken incorrectly
system.cpu.iew.wb_consumers                  12555532                       # num instructions consuming a value
system.cpu.iew.wb_count                      23932198                       # cumulative count of insts written-back
system.cpu.iew.wb_fanout                     0.480284                       # average fanout of values written-back
system.cpu.iew.wb_producers                   6030226                       # num instructions producing a value
system.cpu.iew.wb_rate                       0.254631                       # insts written-back per cycle
system.cpu.iew.wb_sent                       24299404                       # cumulative count of insts sent to commit
system.cpu.int_regfile_reads                 25070649                       # number of integer regfile reads
system.cpu.int_regfile_writes                 8362249                       # number of integer regfile writes
system.cpu.ipc                               0.106397                       # IPC: Instructions Per Cycle
system.cpu.ipc_total                         0.106397                       # IPC: Total IPC of All Threads
system.cpu.iq.FU_type_0::No_OpClass                20      0.00%      0.00% # Type of FU issued
system.cpu.iq.FU_type_0::IntAlu               9104401     37.47%     37.47% # Type of FU issued
system.cpu.iq.FU_type_0::IntMult                   42      0.00%     37.47% # Type of FU issued
system.cpu.iq.FU_type_0::IntDiv                     4      0.00%     37.47% # Type of FU issued
system.cpu.iq.FU_type_0::FloatAdd                   0      0.00%     37.47% # Type of FU issued
system.cpu.iq.FU_type_0::FloatCmp                   2      0.00%     37.47% # Type of FU issued
system.cpu.iq.FU_type_0::FloatCvt                   0      0.00%     37.47% # Type of FU issued
system.cpu.iq.FU_type_0::FloatMult                  0      0.00%     37.47% # Type of FU issued
system.cpu.iq.FU_type_0::FloatMultAcc               0      0.00%     37.47% # Type of FU issued
system.cpu.iq.FU_type_0::FloatDiv                   0      0.00%     37.47% # Type of FU issued
system.cpu.iq.FU_type_0::FloatMisc                  7      0.00%     37.47% # Type of FU issued
system.cpu.iq.FU_type_0::FloatSqrt                  0      0.00%     37.47% # Type of FU issued
system.cpu.iq.FU_type_0::SimdAdd                   58      0.00%     37.47% # Type of FU issued
system.cpu.iq.FU_type_0::SimdAddAcc                 0      0.00%     37.47% # Type of FU issued
system.cpu.iq.FU_type_0::SimdAlu                   87      0.00%     37.47% # Type of FU issued
system.cpu.iq.FU_type_0::SimdCmp                   80      0.00%     37.47% # Type of FU issued
system.cpu.iq.FU_type_0::SimdCvt                    0      0.00%     37.47% # Type of FU issued
system.cpu.iq.FU_type_0::SimdMisc                  57      0.00%     37.47% # Type of FU issued
system.cpu.iq.FU_type_0::SimdMult                   0      0.00%     37.47% # Type of FU issued
system.cpu.iq.FU_type_0::SimdMultAcc                0      0.00%     37.47% # Type of FU issued
system.cpu.iq.FU_type_0::SimdShift                  0      0.00%     37.47% # Type of FU issued
system.cpu.iq.FU_type_0::SimdShiftAcc               0      0.00%     37.47% # Type of FU issued
system.cpu.iq.FU_type_0::SimdDiv                    0      0.00%     37.47% # Type of FU issued
system.cpu.iq.FU_type_0::SimdSqrt                   0      0.00%     37.47% # Type of FU issued
system.cpu.iq.FU_type_0::SimdFloatAdd               0      0.00%     37.47% # Type of FU issued
system.cpu.iq.FU_type_0::SimdFloatAlu               0      0.00%     37.47% # Type of FU issued
system.cpu.iq.FU_type_0::SimdFloatCmp               0      0.00%     37.47% # Type of FU issued
system.cpu.iq.FU_type_0::SimdFloatCvt               0      0.00%     37.47% # Type of FU issued
system.cpu.iq.FU_type_0::SimdFloatDiv               0      0.00%     37.47% # Type of FU issued
system.cpu.iq.FU_type_0::SimdFloatMisc              0      0.00%     37.47% # Type of FU issued
system.cpu.iq.FU_type_0::SimdFloatMult              0      0.00%     37.47% # Type of FU issued
system.cpu.iq.FU_type_0::SimdFloatMultAcc            0      0.00%     37.47% # Type of FU issued
system.cpu.iq.FU_type_0::SimdFloatSqrt              0      0.00%     37.47% # Type of FU issued
system.cpu.iq.FU_type_0::SimdReduceAdd              0      0.00%     37.47% # Type of FU issued
system.cpu.iq.FU_type_0::SimdReduceAlu              0      0.00%     37.47% # Type of FU issued
system.cpu.iq.FU_type_0::SimdReduceCmp              0      0.00%     37.47% # Type of FU issued
system.cpu.iq.FU_type_0::SimdFloatReduceAdd            0      0.00%     37.47% # Type of FU issued
system.cpu.iq.FU_type_0::SimdFloatReduceCmp            0      0.00%     37.47% # Type of FU issued
system.cpu.iq.FU_type_0::SimdAes                    0      0.00%     37.47% # Type of FU issued
system.cpu.iq.FU_type_0::SimdAesMix                 0      0.00%     37.47% # Type of FU issued
system.cpu.iq.FU_type_0::SimdSha1Hash               0      0.00%     37.47% # Type of FU issued
system.cpu.iq.FU_type_0::SimdSha1Hash2              0      0.00%     37.47% # Type of FU issued
system.cpu.iq.FU_type_0::SimdSha256Hash             0      0.00%     37.47% # Type of FU issued
system.cpu.iq.FU_type_0::SimdSha256Hash2            0      0.00%     37.47% # Type of FU issued
system.cpu.iq.FU_type_0::SimdShaSigma2              0      0.00%     37.47% # Type of FU issued
system.cpu.iq.FU_type_0::SimdShaSigma3              0      0.00%     37.47% # Type of FU issued
system.cpu.iq.FU_type_0::SimdPredAlu                0      0.00%     37.47% # Type of FU issued
system.cpu.iq.FU_type_0::MemRead                 2734      0.01%     37.48% # Type of FU issued
system.cpu.iq.FU_type_0::MemWrite            15192950     62.52%    100.00% # Type of FU issued
system.cpu.iq.FU_type_0::FloatMemRead               0      0.00%    100.00% # Type of FU issued
system.cpu.iq.FU_type_0::FloatMemWrite              0      0.00%    100.00% # Type of FU issued
system.cpu.iq.FU_type_0::IprAccess                  0      0.00%    100.00% # Type of FU issued
system.cpu.iq.FU_type_0::InstPrefetch               0      0.00%    100.00% # Type of FU issued
system.cpu.iq.FU_type_0::total               24300442                       # Type of FU issued
system.cpu.iq.fp_alu_accesses                       0                       # Number of floating point alu accesses
system.cpu.iq.fp_inst_queue_reads                   0                       # Number of floating instruction queue reads
system.cpu.iq.fp_inst_queue_wakeup_accesses            0                       # Number of floating instruction queue wakeup accesses
system.cpu.iq.fp_inst_queue_writes                  0                       # Number of floating instruction queue writes
system.cpu.iq.fu_busy_cnt                      361268                       # FU busy when requested
system.cpu.iq.fu_busy_rate                   0.014867                       # FU busy rate (busy events/executed inst)
system.cpu.iq.fu_full::No_OpClass                   0      0.00%      0.00% # attempts to use FU when none available
system.cpu.iq.fu_full::IntAlu                      80      0.02%      0.02% # attempts to use FU when none available
system.cpu.iq.fu_full::IntMult                      3      0.00%      0.02% # attempts to use FU when none available
system.cpu.iq.fu_full::IntDiv                       0      0.00%      0.02% # attempts to use FU when none available
system.cpu.iq.fu_full::FloatAdd                     0      0.00%      0.02% # attempts to use FU when none available
system.cpu.iq.fu_full::FloatCmp                     0      0.00%      0.02% # attempts to use FU when none available
system.cpu.iq.fu_full::FloatCvt                     0      0.00%      0.02% # attempts to use FU when none available
system.cpu.iq.fu_full::FloatMult                    0      0.00%      0.02% # attempts to use FU when none available
system.cpu.iq.fu_full::FloatMultAcc                 0      0.00%      0.02% # attempts to use FU when none available
system.cpu.iq.fu_full::FloatDiv                     0      0.00%      0.02% # attempts to use FU when none available
system.cpu.iq.fu_full::FloatMisc                    0      0.00%      0.02% # attempts to use FU when none available
system.cpu.iq.fu_full::FloatSqrt                    0      0.00%      0.02% # attempts to use FU when none available
system.cpu.iq.fu_full::SimdAdd                      0      0.00%      0.02% # attempts to use FU when none available
system.cpu.iq.fu_full::SimdAddAcc                   0      0.00%      0.02% # attempts to use FU when none available
system.cpu.iq.fu_full::SimdAlu                      1      0.00%      0.02% # attempts to use FU when none available
system.cpu.iq.fu_full::SimdCmp                      2      0.00%      0.02% # attempts to use FU when none available
system.cpu.iq.fu_full::SimdCvt                      0      0.00%      0.02% # attempts to use FU when none available
system.cpu.iq.fu_full::SimdMisc                     0      0.00%      0.02% # attempts to use FU when none available
system.cpu.iq.fu_full::SimdMult                     0      0.00%      0.02% # attempts to use FU when none available
system.cpu.iq.fu_full::SimdMultAcc                  0      0.00%      0.02% # attempts to use FU when none available
system.cpu.iq.fu_full::SimdShift                    0      0.00%      0.02% # attempts to use FU when none available
system.cpu.iq.fu_full::SimdShiftAcc                 0      0.00%      0.02% # attempts to use FU when none available
system.cpu.iq.fu_full::SimdDiv                      0      0.00%      0.02% # attempts to use FU when none available
system.cpu.iq.fu_full::SimdSqrt                     0      0.00%      0.02% # attempts to use FU when none available
system.cpu.iq.fu_full::SimdFloatAdd                 0      0.00%      0.02% # attempts to use FU when none available
system.cpu.iq.fu_full::SimdFloatAlu                 0      0.00%      0.02% # attempts to use FU when none available
system.cpu.iq.fu_full::SimdFloatCmp                 0      0.00%      0.02% # attempts to use FU when none available
system.cpu.iq.fu_full::SimdFloatCvt                 0      0.00%      0.02% # attempts to use FU when none available
system.cpu.iq.fu_full::SimdFloatDiv                 0      0.00%      0.02% # attempts to use FU when none available
system.cpu.iq.fu_full::SimdFloatMisc                0      0.00%      0.02% # attempts to use FU when none available
system.cpu.iq.fu_full::SimdFloatMult                0      0.00%      0.02% # attempts to use FU when none available
system.cpu.iq.fu_full::SimdFloatMultAcc             0      0.00%      0.02% # attempts to use FU when none available
system.cpu.iq.fu_full::SimdFloatSqrt                0      0.00%      0.02% # attempts to use FU when none available
system.cpu.iq.fu_full::SimdReduceAdd                0      0.00%      0.02% # attempts to use FU when none available
system.cpu.iq.fu_full::SimdReduceAlu                0      0.00%      0.02% # attempts to use FU when none available
system.cpu.iq.fu_full::SimdReduceCmp                0      0.00%      0.02% # attempts to use FU when none available
system.cpu.iq.fu_full::SimdFloatReduceAdd            0      0.00%      0.02% # attempts to use FU when none available
system.cpu.iq.fu_full::SimdFloatReduceCmp            0      0.00%      0.02% # attempts to use FU when none available
system.cpu.iq.fu_full::SimdAes                      0      0.00%      0.02% # attempts to use FU when none available
system.cpu.iq.fu_full::SimdAesMix                   0      0.00%      0.02% # attempts to use FU when none available
system.cpu.iq.fu_full::SimdSha1Hash                 0      0.00%      0.02% # attempts to use FU when none available
system.cpu.iq.fu_full::SimdSha1Hash2                0      0.00%      0.02% # attempts to use FU when none available
system.cpu.iq.fu_full::SimdSha256Hash               0      0.00%      0.02% # attempts to use FU when none available
system.cpu.iq.fu_full::SimdSha256Hash2              0      0.00%      0.02% # attempts to use FU when none available
system.cpu.iq.fu_full::SimdShaSigma2                0      0.00%      0.02% # attempts to use FU when none available
system.cpu.iq.fu_full::SimdShaSigma3                0      0.00%      0.02% # attempts to use FU when none available
system.cpu.iq.fu_full::SimdPredAlu                  0      0.00%      0.02% # attempts to use FU when none available
system.cpu.iq.fu_full::MemRead                     41      0.01%      0.04% # attempts to use FU when none available
system.cpu.iq.fu_full::MemWrite                361141     99.96%    100.00% # attempts to use FU when none available
system.cpu.iq.fu_full::FloatMemRead                 0      0.00%    100.00% # attempts to use FU when none available
system.cpu.iq.fu_full::FloatMemWrite                0      0.00%    100.00% # attempts to use FU when none available
system.cpu.iq.fu_full::IprAccess                    0      0.00%    100.00% # attempts to use FU when none available
system.cpu.iq.fu_full::InstPrefetch                 0      0.00%    100.00% # attempts to use FU when none available
system.cpu.iq.int_alu_accesses                9878813                       # Number of integer alu accesses
system.cpu.iq.int_inst_queue_reads          113702113                       # Number of integer instruction queue reads
system.cpu.iq.int_inst_queue_wakeup_accesses      9822573                       # Number of integer instruction queue wakeup accesses
system.cpu.iq.int_inst_queue_writes          10472868                       # Number of integer instruction queue writes
system.cpu.iq.iqInstsAdded                   24302196                       # Number of instructions added to the IQ (excludes non-spec)
system.cpu.iq.iqInstsIssued                  24300442                       # Number of instructions issued
system.cpu.iq.iqNonSpecInstsAdded                  34                       # Number of non-speculative instructions added to the IQ
system.cpu.iq.iqSquashedInstsExamined         1456693                       # Number of squashed instructions iterated over during squash; mainly for profiling
system.cpu.iq.iqSquashedInstsIssued                53                       # Number of squashed instructions issued
system.cpu.iq.iqSquashedNonSpecRemoved              9                       # Number of squashed non-spec instructions that were removed
system.cpu.iq.iqSquashedOperandsExamined      1362461                       # Number of squashed operands that are examined and possibly removed from graph
system.cpu.iq.issued_per_cycle::samples      93944634                       # Number of insts issued each cycle
system.cpu.iq.issued_per_cycle::mean         0.258668                       # Number of insts issued each cycle
system.cpu.iq.issued_per_cycle::stdev        0.920893                       # Number of insts issued each cycle
system.cpu.iq.issued_per_cycle::underflows            0      0.00%      0.00% # Number of insts issued each cycle
system.cpu.iq.issued_per_cycle::0            85083674     90.57%     90.57% # Number of insts issued each cycle
system.cpu.iq.issued_per_cycle::1             1888333      2.01%     92.58% # Number of insts issued each cycle
system.cpu.iq.issued_per_cycle::2             2989148      3.18%     95.76% # Number of insts issued each cycle
system.cpu.iq.issued_per_cycle::3             1206498      1.28%     97.04% # Number of insts issued each cycle
system.cpu.iq.issued_per_cycle::4             1626038      1.73%     98.77% # Number of insts issued each cycle
system.cpu.iq.issued_per_cycle::5              736757      0.78%     99.56% # Number of insts issued each cycle
system.cpu.iq.issued_per_cycle::6              307337      0.33%     99.89% # Number of insts issued each cycle
system.cpu.iq.issued_per_cycle::7               72432      0.08%     99.96% # Number of insts issued each cycle
system.cpu.iq.issued_per_cycle::8               34417      0.04%    100.00% # Number of insts issued each cycle
system.cpu.iq.issued_per_cycle::overflows            0      0.00%    100.00% # Number of insts issued each cycle
system.cpu.iq.issued_per_cycle::min_value            0                       # Number of insts issued each cycle
system.cpu.iq.issued_per_cycle::max_value            8                       # Number of insts issued each cycle
system.cpu.iq.issued_per_cycle::total        93944634                       # Number of insts issued each cycle
system.cpu.iq.rate                           0.258549                       # Inst issue rate
system.cpu.iq.vec_alu_accesses               14782877                       # Number of vector alu accesses
system.cpu.iq.vec_inst_queue_reads           29204724                       # Number of vector instruction queue reads
system.cpu.iq.vec_inst_queue_wakeup_accesses     14109625                       # Number of vector instruction queue wakeup accesses
system.cpu.iq.vec_inst_queue_writes          15286070                       # Number of vector instruction queue writes
system.cpu.itb.accesses                             0                       # DTB accesses
system.cpu.itb.align_faults                         0                       # Number of TLB faults due to alignment restrictions
system.cpu.itb.domain_faults                        0                       # Number of TLB faults due to domain restrictions
system.cpu.itb.flush_entries                        0                       # Number of entries that have been flushed from TLB
system.cpu.itb.flush_tlb                            0                       # Number of times complete TLB was flushed
system.cpu.itb.flush_tlb_asid                       0                       # Number of times TLB was flushed by ASID
system.cpu.itb.flush_tlb_mva                        0                       # Number of times TLB was flushed by MVA
system.cpu.itb.flush_tlb_mva_asid                   0                       # Number of times TLB was flushed by MVA & ASID
system.cpu.itb.hits                                 0                       # DTB hits
system.cpu.itb.inst_accesses                        0                       # ITB inst accesses
system.cpu.itb.inst_hits                            0                       # ITB inst hits
system.cpu.itb.inst_misses                          0                       # ITB inst misses
system.cpu.itb.misses                               0                       # DTB misses
system.cpu.itb.perms_faults                         0                       # Number of TLB faults due to permissions restrictions
system.cpu.itb.prefetch_faults                      0                       # Number of TLB faults due to prefetch
system.cpu.itb.read_accesses                        0                       # DTB read accesses
system.cpu.itb.read_hits                            0                       # DTB read hits
system.cpu.itb.read_misses                          0                       # DTB read misses
system.cpu.itb.stage2_mmu.stage2_tlb.accesses            0                       # DTB accesses
system.cpu.itb.stage2_mmu.stage2_tlb.align_faults            0                       # Number of TLB faults due to alignment restrictions
system.cpu.itb.stage2_mmu.stage2_tlb.domain_faults            0                       # Number of TLB faults due to domain restrictions
system.cpu.itb.stage2_mmu.stage2_tlb.flush_entries            0                       # Number of entries that have been flushed from TLB
system.cpu.itb.stage2_mmu.stage2_tlb.flush_tlb            0                       # Number of times complete TLB was flushed
system.cpu.itb.stage2_mmu.stage2_tlb.flush_tlb_asid            0                       # Number of times TLB was flushed by ASID
system.cpu.itb.stage2_mmu.stage2_tlb.flush_tlb_mva            0                       # Number of times TLB was flushed by MVA
system.cpu.itb.stage2_mmu.stage2_tlb.flush_tlb_mva_asid            0                       # Number of times TLB was flushed by MVA & ASID
system.cpu.itb.stage2_mmu.stage2_tlb.hits            0                       # DTB hits
system.cpu.itb.stage2_mmu.stage2_tlb.inst_accesses            0                       # ITB inst accesses
system.cpu.itb.stage2_mmu.stage2_tlb.inst_hits            0                       # ITB inst hits
system.cpu.itb.stage2_mmu.stage2_tlb.inst_misses            0                       # ITB inst misses
system.cpu.itb.stage2_mmu.stage2_tlb.misses            0                       # DTB misses
system.cpu.itb.stage2_mmu.stage2_tlb.perms_faults            0                       # Number of TLB faults due to permissions restrictions
system.cpu.itb.stage2_mmu.stage2_tlb.prefetch_faults            0                       # Number of TLB faults due to prefetch
system.cpu.itb.stage2_mmu.stage2_tlb.read_accesses            0                       # DTB read accesses
system.cpu.itb.stage2_mmu.stage2_tlb.read_hits            0                       # DTB read hits
system.cpu.itb.stage2_mmu.stage2_tlb.read_misses            0                       # DTB read misses
system.cpu.itb.stage2_mmu.stage2_tlb.walker.walkRequestOrigin_Requested::Data            0                       # Table walker requests started/completed, data/inst
system.cpu.itb.stage2_mmu.stage2_tlb.walker.walkRequestOrigin_Requested::Inst            0                       # Table walker requests started/completed, data/inst
system.cpu.itb.stage2_mmu.stage2_tlb.walker.walkRequestOrigin_Requested::total            0                       # Table walker requests started/completed, data/inst
system.cpu.itb.stage2_mmu.stage2_tlb.walker.walkRequestOrigin_Completed::Data            0                       # Table walker requests started/completed, data/inst
system.cpu.itb.stage2_mmu.stage2_tlb.walker.walkRequestOrigin_Completed::Inst            0                       # Table walker requests started/completed, data/inst
system.cpu.itb.stage2_mmu.stage2_tlb.walker.walkRequestOrigin_Completed::total            0                       # Table walker requests started/completed, data/inst
system.cpu.itb.stage2_mmu.stage2_tlb.walker.walkRequestOrigin::total            0                       # Table walker requests started/completed, data/inst
system.cpu.itb.stage2_mmu.stage2_tlb.walker.walks            0                       # Table walker walks requested
system.cpu.itb.stage2_mmu.stage2_tlb.write_accesses            0                       # DTB write accesses
system.cpu.itb.stage2_mmu.stage2_tlb.write_hits            0                       # DTB write hits
system.cpu.itb.stage2_mmu.stage2_tlb.write_misses            0                       # DTB write misses
system.cpu.itb.walker.walkRequestOrigin_Requested::Data            0                       # Table walker requests started/completed, data/inst
system.cpu.itb.walker.walkRequestOrigin_Requested::Inst            0                       # Table walker requests started/completed, data/inst
system.cpu.itb.walker.walkRequestOrigin_Requested::total            0                       # Table walker requests started/completed, data/inst
system.cpu.itb.walker.walkRequestOrigin_Completed::Data            0                       # Table walker requests started/completed, data/inst
system.cpu.itb.walker.walkRequestOrigin_Completed::Inst            0                       # Table walker requests started/completed, data/inst
system.cpu.itb.walker.walkRequestOrigin_Completed::total            0                       # Table walker requests started/completed, data/inst
system.cpu.itb.walker.walkRequestOrigin::total            0                       # Table walker requests started/completed, data/inst
system.cpu.itb.walker.walks                         0                       # Table walker walks requested
system.cpu.itb.write_accesses                       0                       # DTB write accesses
system.cpu.itb.write_hits                           0                       # DTB write hits
system.cpu.itb.write_misses                         0                       # DTB write misses
system.cpu.memDep0.conflictingLoads                11                       # Number of conflicting loads.
system.cpu.memDep0.conflictingStores                6                       # Number of conflicting stores.
system.cpu.memDep0.insertedLoads                 2832                       # Number of loads inserted to the mem dependence unit.
system.cpu.memDep0.insertedStores            15193336                       # Number of stores inserted to the mem dependence unit.
system.cpu.misc_regfile_reads                47167767                       # number of misc regfile reads
system.cpu.misc_regfile_writes                     60                       # number of misc regfile writes
system.cpu.numCycles                         93987658                       # number of cpu cycles simulated
system.cpu.numWorkItemsCompleted                    0                       # number of work items this cpu completed
system.cpu.numWorkItemsStarted                      0                       # number of work items this cpu started
system.cpu.rename.BlockCycles                18078161                       # Number of cycles rename is blocking
system.cpu.rename.CommittedMaps              10001632                       # Number of HB maps that are committed
system.cpu.rename.IQFullEvents                     25                       # Number of times rename has blocked due to IQ full
system.cpu.rename.IdleCycles                  1861446                       # Number of cycles rename is idle
system.cpu.rename.ROBFullEvents                     2                       # Number of times rename has blocked due to ROB full
system.cpu.rename.RenameLookups              70898324                       # Number of register rename lookups that rename has made
system.cpu.rename.RenamedInsts               24405712                       # Number of instructions processed by rename
system.cpu.rename.RenamedOperands            10622736                       # Number of destination operands rename has renamed
system.cpu.rename.RunCycles                   2211164                       # Number of cycles rename is running
system.cpu.rename.SQFullEvents               70983899                       # Number of times rename has blocked due to SQ full
system.cpu.rename.SquashCycles                  28412                       # Number of cycles rename is squashing
system.cpu.rename.UnblockCycles              71762540                       # Number of cycles rename is unblocking
system.cpu.rename.UndoneMaps                   621101                       # Number of HB maps that are undone due to squashing
system.cpu.rename.int_rename_lookups         25177301                       # Number of integer rename lookups
system.cpu.rename.serializeStallCycles           2911                       # count of cycles rename stalled for serializing inst
system.cpu.rename.serializingInsts                106                       # count of serializing insts renamed
system.cpu.rename.skidInsts                  16945802                       # count of insts added to the skid buffer
system.cpu.rename.tempSerializingInsts             34                       # count of temporary serializing insts renamed
system.cpu.rename.vec_rename_lookups         14496920                       # Number of vector rename lookups
system.cpu.rob.rob_reads                    117368975                       # The number of ROB reads
system.cpu.rob.rob_writes                    48066736                       # The number of ROB writes
system.cpu.timesIdled                             479                       # Number of times that the entire CPU went into an idle state and unscheduled itself
system.cpu.vec_regfile_reads                 14421933                       # number of vector regfile reads
system.cpu.vec_regfile_writes                     336                       # number of vector regfile writes
system.cpu.workload.numSyscalls                    10                       # Number of system calls
system.membus.snoop_filter.hit_multi_requests            0                       # Number of requests hitting in the snoop filter with multiple (>1) holders of the requested data.
system.membus.snoop_filter.hit_multi_snoops            0                       # Number of snoops hitting in the snoop filter with multiple (>1) holders of the requested data.
system.membus.snoop_filter.hit_single_requests      1653437                       # Number of requests hitting in the snoop filter with a single holder of the requested data.
system.membus.snoop_filter.hit_single_snoops            0                       # Number of snoops hitting in the snoop filter with a single holder of the requested data.
system.membus.snoop_filter.tot_requests       3438043                       # Total number of requests made to the snoop filter.
system.membus.snoop_filter.tot_snoops               0                       # Total number of snoops made to the snoop filter.
system.tol2bus.snoop_filter.hit_multi_requests            1                       # Number of requests hitting in the snoop filter with multiple (>1) holders of the requested data.
system.tol2bus.snoop_filter.hit_multi_snoops            0                       # Number of snoops hitting in the snoop filter with multiple (>1) holders of the requested data.
system.tol2bus.snoop_filter.hit_single_requests      1784259                       # Number of requests hitting in the snoop filter with a single holder of the requested data.
system.tol2bus.snoop_filter.hit_single_snoops           64                       # Number of snoops hitting in the snoop filter with a single holder of the requested data.
system.tol2bus.snoop_filter.tot_requests      3569608                       # Total number of requests made to the snoop filter.
system.tol2bus.snoop_filter.tot_snoops             64                       # Total number of snoops made to the snoop filter.
system.membus.trans_dist::ReadResp                632                       # Transaction distribution
system.membus.trans_dist::WritebackDirty      1652891                       # Transaction distribution
system.membus.trans_dist::CleanEvict              546                       # Transaction distribution
system.membus.trans_dist::ReadExReq           1732302                       # Transaction distribution
system.membus.trans_dist::ReadExResp          1732302                       # Transaction distribution
system.membus.trans_dist::ReadSharedReq           632                       # Transaction distribution
system.membus.trans_dist::InvalidateReq         51672                       # Transaction distribution
system.membus.pkt_count_system.l2.mem_side::system.mem_ctrls.port      5170977                       # Packet count per connected master and slave (bytes)
system.membus.pkt_count::total                5170977                       # Packet count per connected master and slave (bytes)
system.membus.pkt_size_system.l2.mem_side::system.mem_ctrls.port    216692800                       # Cumulative packet size per connected master and slave (bytes)
system.membus.pkt_size::total               216692800                       # Cumulative packet size per connected master and slave (bytes)
system.membus.snoops                                0                       # Total snoops (count)
system.membus.snoopTraffic                          0                       # Total snoop traffic (bytes)
system.membus.snoop_fanout::samples           1784606                       # Request fanout histogram
system.membus.snoop_fanout::mean                    0                       # Request fanout histogram
system.membus.snoop_fanout::stdev                   0                       # Request fanout histogram
system.membus.snoop_fanout::underflows              0      0.00%      0.00% # Request fanout histogram
system.membus.snoop_fanout::0                 1784606    100.00%    100.00% # Request fanout histogram
system.membus.snoop_fanout::1                       0      0.00%    100.00% # Request fanout histogram
system.membus.snoop_fanout::overflows               0      0.00%    100.00% # Request fanout histogram
system.membus.snoop_fanout::min_value               0                       # Request fanout histogram
system.membus.snoop_fanout::max_value               0                       # Request fanout histogram
system.membus.snoop_fanout::total             1784606                       # Request fanout histogram
system.membus.reqLayer0.occupancy         10220355500                       # Layer occupancy (ticks)
system.membus.reqLayer0.utilization              21.7                       # Layer utilization (%)
system.membus.respLayer1.occupancy         8864029000                       # Layer occupancy (ticks)
system.membus.respLayer1.utilization             18.9                       # Layer utilization (%)
system.membus.power_state.pwrStateResidencyTicks::UNDEFINED  46993828500                       # Cumulative time (in ticks) in various power states
system.tol2bus.trans_dist::ReadResp              1375                       # Transaction distribution
system.tol2bus.trans_dist::WritebackDirty      3435863                       # Transaction distribution
system.tol2bus.trans_dist::WritebackClean         1196                       # Transaction distribution
system.tol2bus.trans_dist::CleanEvict             703                       # Transaction distribution
system.tol2bus.trans_dist::ReadExReq          1732302                       # Transaction distribution
system.tol2bus.trans_dist::ReadExResp         1732300                       # Transaction distribution
system.tol2bus.trans_dist::ReadCleanReq          1260                       # Transaction distribution
system.tol2bus.trans_dist::ReadSharedReq          115                       # Transaction distribution
system.tol2bus.trans_dist::InvalidateReq        51672                       # Transaction distribution
system.tol2bus.trans_dist::InvalidateResp        51672                       # Transaction distribution
system.tol2bus.pkt_count_system.cpu.icache.mem_side::system.l2.cpu_side         3716                       # Packet count per connected master and slave (bytes)
system.tol2bus.pkt_count_system.cpu.dcache.mem_side::system.l2.cpu_side      5351239                       # Packet count per connected master and slave (bytes)
system.tol2bus.pkt_count::total               5354955                       # Packet count per connected master and slave (bytes)
system.tol2bus.pkt_size_system.cpu.icache.mem_side::system.l2.cpu_side       157184                       # Cumulative packet size per connected master and slave (bytes)
system.tol2bus.pkt_size_system.cpu.dcache.mem_side::system.l2.cpu_side    224984640                       # Cumulative packet size per connected master and slave (bytes)
system.tol2bus.pkt_size::total              225141824                       # Cumulative packet size per connected master and slave (bytes)
system.tol2bus.snoops                         1653503                       # Total snoops (count)
system.tol2bus.snoopTraffic                 105785152                       # Total snoop traffic (bytes)
system.tol2bus.snoop_fanout::samples          3438852                       # Request fanout histogram
system.tol2bus.snoop_fanout::mean            0.000019                       # Request fanout histogram
system.tol2bus.snoop_fanout::stdev           0.004348                       # Request fanout histogram
system.tol2bus.snoop_fanout::underflows             0      0.00%      0.00% # Request fanout histogram
system.tol2bus.snoop_fanout::0                3438787    100.00%    100.00% # Request fanout histogram
system.tol2bus.snoop_fanout::1                     65      0.00%    100.00% # Request fanout histogram
system.tol2bus.snoop_fanout::2                      0      0.00%    100.00% # Request fanout histogram
system.tol2bus.snoop_fanout::overflows              0      0.00%    100.00% # Request fanout histogram
system.tol2bus.snoop_fanout::min_value              0                       # Request fanout histogram
system.tol2bus.snoop_fanout::max_value              1                       # Request fanout histogram
system.tol2bus.snoop_fanout::total            3438852                       # Request fanout histogram
system.tol2bus.reqLayer0.occupancy         3569016844                       # Layer occupancy (ticks)
system.tol2bus.reqLayer0.utilization              7.6                       # Layer utilization (%)
system.tol2bus.respLayer1.occupancy        2624458999                       # Layer occupancy (ticks)
system.tol2bus.respLayer1.utilization             5.6                       # Layer utilization (%)
system.tol2bus.respLayer0.occupancy           1890000                       # Layer occupancy (ticks)
system.tol2bus.respLayer0.utilization             0.0                       # Layer utilization (%)
system.tol2bus.power_state.pwrStateResidencyTicks::UNDEFINED  46993828500                       # Cumulative time (in ticks) in various power states
system.voltage_domain.voltage                       1                       # Voltage in Volts
system.clk_domain.clock                          1000                       # Clock period in ticks
system.l2.demand_hits::.cpu.inst                  193                       # number of demand (read+write) hits
system.l2.demand_hits::.cpu.icache.prefetcher          550                       # number of demand (read+write) hits
system.l2.demand_hits::total                      743                       # number of demand (read+write) hits
system.l2.overall_hits::.cpu.inst                 193                       # number of overall hits
system.l2.overall_hits::.cpu.icache.prefetcher          550                       # number of overall hits
system.l2.overall_hits::total                     743                       # number of overall hits
system.l2.demand_misses::.cpu.inst                517                       # number of demand (read+write) misses
system.l2.demand_misses::.cpu.data            1732417                       # number of demand (read+write) misses
system.l2.demand_misses::total                1732934                       # number of demand (read+write) misses
system.l2.overall_misses::.cpu.inst               517                       # number of overall misses
system.l2.overall_misses::.cpu.data           1732417                       # number of overall misses
system.l2.overall_misses::total               1732934                       # number of overall misses
system.l2.demand_miss_latency::.cpu.inst     40641000                       # number of demand (read+write) miss cycles
system.l2.demand_miss_latency::.cpu.data 205054588500                       # number of demand (read+write) miss cycles
system.l2.demand_miss_latency::total     205095229500                       # number of demand (read+write) miss cycles
system.l2.overall_miss_latency::.cpu.inst     40641000                       # number of overall miss cycles
system.l2.overall_miss_latency::.cpu.data 205054588500                       # number of overall miss cycles
system.l2.overall_miss_latency::total    205095229500                       # number of overall miss cycles
system.l2.demand_accesses::.cpu.inst              710                       # number of demand (read+write) accesses
system.l2.demand_accesses::.cpu.data          1732417                       # number of demand (read+write) accesses
system.l2.demand_accesses::.cpu.icache.prefetcher          550                       # number of demand (read+write) accesses
system.l2.demand_accesses::total              1733677                       # number of demand (read+write) accesses
system.l2.overall_accesses::.cpu.inst             710                       # number of overall (read+write) accesses
system.l2.overall_accesses::.cpu.data         1732417                       # number of overall (read+write) accesses
system.l2.overall_accesses::.cpu.icache.prefetcher          550                       # number of overall (read+write) accesses
system.l2.overall_accesses::total             1733677                       # number of overall (read+write) accesses
system.l2.demand_miss_rate::.cpu.inst        0.728169                       # miss rate for demand accesses
system.l2.demand_miss_rate::.cpu.data               1                       # miss rate for demand accesses
system.l2.demand_miss_rate::total            0.999571                       # miss rate for demand accesses
system.l2.overall_miss_rate::.cpu.inst       0.728169                       # miss rate for overall accesses
system.l2.overall_miss_rate::.cpu.data              1                       # miss rate for overall accesses
system.l2.overall_miss_rate::total           0.999571                       # miss rate for overall accesses
system.l2.demand_avg_miss_latency::.cpu.inst 78609.284333                       # average overall miss latency
system.l2.demand_avg_miss_latency::.cpu.data 118363.297347                       # average overall miss latency
system.l2.demand_avg_miss_latency::total 118351.437216                       # average overall miss latency
system.l2.overall_avg_miss_latency::.cpu.inst 78609.284333                       # average overall miss latency
system.l2.overall_avg_miss_latency::.cpu.data 118363.297347                       # average overall miss latency
system.l2.overall_avg_miss_latency::total 118351.437216                       # average overall miss latency
system.l2.blocked_cycles::no_mshrs                  0                       # number of cycles access was blocked
system.l2.blocked_cycles::no_targets                0                       # number of cycles access was blocked
system.l2.blocked::no_mshrs                         0                       # number of cycles access was blocked
system.l2.blocked::no_targets                       0                       # number of cycles access was blocked
system.l2.avg_blocked_cycles::no_mshrs            nan                       # average number of cycles each access was blocked
system.l2.avg_blocked_cycles::no_targets          nan                       # average number of cycles each access was blocked
system.l2.writebacks::.writebacks             1652893                       # number of writebacks
system.l2.writebacks::total                   1652893                       # number of writebacks
system.l2.demand_mshr_misses::.cpu.inst           517                       # number of demand (read+write) MSHR misses
system.l2.demand_mshr_misses::.cpu.data       1732417                       # number of demand (read+write) MSHR misses
system.l2.demand_mshr_misses::total           1732934                       # number of demand (read+write) MSHR misses
system.l2.overall_mshr_misses::.cpu.inst          517                       # number of overall MSHR misses
system.l2.overall_mshr_misses::.cpu.data      1732417                       # number of overall MSHR misses
system.l2.overall_mshr_misses::total          1732934                       # number of overall MSHR misses
system.l2.demand_mshr_miss_latency::.cpu.inst     35471000                       # number of demand (read+write) MSHR miss cycles
system.l2.demand_mshr_miss_latency::.cpu.data 187730418500                       # number of demand (read+write) MSHR miss cycles
system.l2.demand_mshr_miss_latency::total 187765889500                       # number of demand (read+write) MSHR miss cycles
system.l2.overall_mshr_miss_latency::.cpu.inst     35471000                       # number of overall MSHR miss cycles
system.l2.overall_mshr_miss_latency::.cpu.data 187730418500                       # number of overall MSHR miss cycles
system.l2.overall_mshr_miss_latency::total 187765889500                       # number of overall MSHR miss cycles
system.l2.demand_mshr_miss_rate::.cpu.inst     0.728169                       # mshr miss rate for demand accesses
system.l2.demand_mshr_miss_rate::.cpu.data            1                       # mshr miss rate for demand accesses
system.l2.demand_mshr_miss_rate::total       0.999571                       # mshr miss rate for demand accesses
system.l2.overall_mshr_miss_rate::.cpu.inst     0.728169                       # mshr miss rate for overall accesses
system.l2.overall_mshr_miss_rate::.cpu.data            1                       # mshr miss rate for overall accesses
system.l2.overall_mshr_miss_rate::total      0.999571                       # mshr miss rate for overall accesses
system.l2.demand_avg_mshr_miss_latency::.cpu.inst 68609.284333                       # average overall mshr miss latency
system.l2.demand_avg_mshr_miss_latency::.cpu.data 108363.297347                       # average overall mshr miss latency
system.l2.demand_avg_mshr_miss_latency::total 108351.437216                       # average overall mshr miss latency
system.l2.overall_avg_mshr_miss_latency::.cpu.inst 68609.284333                       # average overall mshr miss latency
system.l2.overall_avg_mshr_miss_latency::.cpu.data 108363.297347                       # average overall mshr miss latency
system.l2.overall_avg_mshr_miss_latency::total 108351.437216                       # average overall mshr miss latency
system.l2.replacements                        1653503                       # number of replacements
system.l2.WritebackDirty_hits::.writebacks      1782970                       # number of WritebackDirty hits
system.l2.WritebackDirty_hits::total          1782970                       # number of WritebackDirty hits
system.l2.WritebackDirty_accesses::.writebacks      1782970                       # number of WritebackDirty accesses(hits+misses)
system.l2.WritebackDirty_accesses::total      1782970                       # number of WritebackDirty accesses(hits+misses)
system.l2.WritebackClean_hits::.writebacks         1195                       # number of WritebackClean hits
system.l2.WritebackClean_hits::total             1195                       # number of WritebackClean hits
system.l2.WritebackClean_accesses::.writebacks         1195                       # number of WritebackClean accesses(hits+misses)
system.l2.WritebackClean_accesses::total         1195                       # number of WritebackClean accesses(hits+misses)
system.l2.ReadExReq_misses::.cpu.data         1732302                       # number of ReadExReq misses
system.l2.ReadExReq_misses::total             1732302                       # number of ReadExReq misses
system.l2.ReadExReq_miss_latency::.cpu.data 205044329500                       # number of ReadExReq miss cycles
system.l2.ReadExReq_miss_latency::total  205044329500                       # number of ReadExReq miss cycles
system.l2.ReadExReq_accesses::.cpu.data       1732302                       # number of ReadExReq accesses(hits+misses)
system.l2.ReadExReq_accesses::total           1732302                       # number of ReadExReq accesses(hits+misses)
system.l2.ReadExReq_miss_rate::.cpu.data            1                       # miss rate for ReadExReq accesses
system.l2.ReadExReq_miss_rate::total                1                       # miss rate for ReadExReq accesses
system.l2.ReadExReq_avg_miss_latency::.cpu.data 118365.232794                       # average ReadExReq miss latency
system.l2.ReadExReq_avg_miss_latency::total 118365.232794                       # average ReadExReq miss latency
system.l2.ReadExReq_mshr_misses::.cpu.data      1732302                       # number of ReadExReq MSHR misses
system.l2.ReadExReq_mshr_misses::total        1732302                       # number of ReadExReq MSHR misses
system.l2.ReadExReq_mshr_miss_latency::.cpu.data 187721309500                       # number of ReadExReq MSHR miss cycles
system.l2.ReadExReq_mshr_miss_latency::total 187721309500                       # number of ReadExReq MSHR miss cycles
system.l2.ReadExReq_mshr_miss_rate::.cpu.data            1                       # mshr miss rate for ReadExReq accesses
system.l2.ReadExReq_mshr_miss_rate::total            1                       # mshr miss rate for ReadExReq accesses
system.l2.ReadExReq_avg_mshr_miss_latency::.cpu.data 108365.232794                       # average ReadExReq mshr miss latency
system.l2.ReadExReq_avg_mshr_miss_latency::total 108365.232794                       # average ReadExReq mshr miss latency
system.l2.ReadCleanReq_hits::.cpu.inst            193                       # number of ReadCleanReq hits
system.l2.ReadCleanReq_hits::.cpu.icache.prefetcher          550                       # number of ReadCleanReq hits
system.l2.ReadCleanReq_hits::total                743                       # number of ReadCleanReq hits
system.l2.ReadCleanReq_misses::.cpu.inst          517                       # number of ReadCleanReq misses
system.l2.ReadCleanReq_misses::total              517                       # number of ReadCleanReq misses
system.l2.ReadCleanReq_miss_latency::.cpu.inst     40641000                       # number of ReadCleanReq miss cycles
system.l2.ReadCleanReq_miss_latency::total     40641000                       # number of ReadCleanReq miss cycles
system.l2.ReadCleanReq_accesses::.cpu.inst          710                       # number of ReadCleanReq accesses(hits+misses)
system.l2.ReadCleanReq_accesses::.cpu.icache.prefetcher          550                       # number of ReadCleanReq accesses(hits+misses)
system.l2.ReadCleanReq_accesses::total           1260                       # number of ReadCleanReq accesses(hits+misses)
system.l2.ReadCleanReq_miss_rate::.cpu.inst     0.728169                       # miss rate for ReadCleanReq accesses
system.l2.ReadCleanReq_miss_rate::total      0.410317                       # miss rate for ReadCleanReq accesses
system.l2.ReadCleanReq_avg_miss_latency::.cpu.inst 78609.284333                       # average ReadCleanReq miss latency
[...]
system.cpu.dcache.demand_miss_latency::.cpu.data 1239589886500                       # number of demand (read+write) miss cycles
system.cpu.dcache.demand_miss_latency::total 1239589886500                       # number of demand (read+write) miss cycles
system.cpu.dcache.overall_miss_latency::.cpu.data 1239589886500                       # number of overall miss cycles
system.cpu.dcache.overall_miss_latency::total 1239589886500                       # number of overall miss cycles
system.cpu.dcache.demand_accesses::.cpu.data     14275139                       # number of demand (read+write) accesses
system.cpu.dcache.demand_accesses::total     14275139                       # number of demand (read+write) accesses
system.cpu.dcache.overall_accesses::.cpu.data     14275165                       # number of overall (read+write) accesses
system.cpu.dcache.overall_accesses::total     14275165                       # number of overall (read+write) accesses
system.cpu.dcache.demand_miss_rate::.cpu.data     0.961938                       # miss rate for demand accesses
system.cpu.dcache.demand_miss_rate::total     0.961938                       # miss rate for demand accesses
system.cpu.dcache.overall_miss_rate::.cpu.data     0.961936                       # miss rate for overall accesses
system.cpu.dcache.overall_miss_rate::total     0.961936                       # miss rate for overall accesses
system.cpu.dcache.demand_avg_miss_latency::.cpu.data 90271.511226                       # average overall miss latency
system.cpu.dcache.demand_avg_miss_latency::total 90271.511226                       # average overall miss latency
system.cpu.dcache.overall_avg_miss_latency::.cpu.data 90271.498079                       # average overall miss latency
system.cpu.dcache.overall_avg_miss_latency::total 90271.498079                       # average overall miss latency
system.cpu.dcache.blocked_cycles::no_mshrs            0                       # number of cycles access was blocked
system.cpu.dcache.blocked_cycles::no_targets            0                       # number of cycles access was blocked
system.cpu.dcache.blocked::no_mshrs                 0                       # number of cycles access was blocked
system.cpu.dcache.blocked::no_targets               0                       # number of cycles access was blocked
system.cpu.dcache.avg_blocked_cycles::no_mshrs          nan                       # average number of cycles each access was blocked
system.cpu.dcache.avg_blocked_cycles::no_targets          nan                       # average number of cycles each access was blocked
system.cpu.dcache.writebacks::.writebacks      1782970                       # number of writebacks
system.cpu.dcache.writebacks::total           1782970                       # number of writebacks
system.cpu.dcache.demand_mshr_hits::.cpu.data     11947709                       # number of demand (read+write) MSHR hits
system.cpu.dcache.demand_mshr_hits::total     11947709                       # number of demand (read+write) MSHR hits
system.cpu.dcache.overall_mshr_hits::.cpu.data     11947709                       # number of overall MSHR hits
system.cpu.dcache.overall_mshr_hits::total     11947709                       # number of overall MSHR hits
system.cpu.dcache.demand_mshr_misses::.cpu.data      1784086                       # number of demand (read+write) MSHR misses
system.cpu.dcache.demand_mshr_misses::total      1784086                       # number of demand (read+write) MSHR misses
system.cpu.dcache.overall_mshr_misses::.cpu.data      1784088                       # number of overall MSHR misses
system.cpu.dcache.overall_mshr_misses::total      1784088                       # number of overall MSHR misses
system.cpu.dcache.demand_mshr_miss_latency::.cpu.data 209377255000                       # number of demand (read+write) MSHR miss cycles
system.cpu.dcache.demand_mshr_miss_latency::total 209377255000                       # number of demand (read+write) MSHR miss cycles
system.cpu.dcache.overall_mshr_miss_latency::.cpu.data 209377439500                       # number of overall MSHR miss cycles
system.cpu.dcache.overall_mshr_miss_latency::total 209377439500                       # number of overall MSHR miss cycles
system.cpu.dcache.demand_mshr_miss_rate::.cpu.data     0.124979                       # mshr miss rate for demand accesses
system.cpu.dcache.demand_mshr_miss_rate::total     0.124979                       # mshr miss rate for demand accesses
system.cpu.dcache.overall_mshr_miss_rate::.cpu.data     0.124978                       # mshr miss rate for overall accesses
system.cpu.dcache.overall_mshr_miss_rate::total     0.124978                       # mshr miss rate for overall accesses
system.cpu.dcache.demand_avg_mshr_miss_latency::.cpu.data 117358.274769                       # average overall mshr miss latency
system.cpu.dcache.demand_avg_mshr_miss_latency::total 117358.274769                       # average overall mshr miss latency
system.cpu.dcache.overall_avg_mshr_miss_latency::.cpu.data 117358.246622                       # average overall mshr miss latency
system.cpu.dcache.overall_avg_mshr_miss_latency::total 117358.246622                       # average overall mshr miss latency
system.cpu.dcache.replacements                1783063                       # number of replacements
system.cpu.dcache.ReadReq_hits::.cpu.data         2213                       # number of ReadReq hits
system.cpu.dcache.ReadReq_hits::total            2213                       # number of ReadReq hits
system.cpu.dcache.ReadReq_misses::.cpu.data          254                       # number of ReadReq misses
system.cpu.dcache.ReadReq_misses::total           254                       # number of ReadReq misses
system.cpu.dcache.ReadReq_miss_latency::.cpu.data     20360500                       # number of ReadReq miss cycles
system.cpu.dcache.ReadReq_miss_latency::total     20360500                       # number of ReadReq miss cycles
system.cpu.dcache.ReadReq_accesses::.cpu.data         2467                       # number of ReadReq accesses(hits+misses)
system.cpu.dcache.ReadReq_accesses::total         2467                       # number of ReadReq accesses(hits+misses)
system.cpu.dcache.ReadReq_miss_rate::.cpu.data     0.102959                       # miss rate for ReadReq accesses
system.cpu.dcache.ReadReq_miss_rate::total     0.102959                       # miss rate for ReadReq accesses
system.cpu.dcache.ReadReq_avg_miss_latency::.cpu.data 80159.448819                       # average ReadReq miss latency
system.cpu.dcache.ReadReq_avg_miss_latency::total 80159.448819                       # average ReadReq miss latency
system.cpu.dcache.ReadReq_mshr_hits::.cpu.data          142                       # number of ReadReq MSHR hits
system.cpu.dcache.ReadReq_mshr_hits::total          142                       # number of ReadReq MSHR hits
system.cpu.dcache.ReadReq_mshr_misses::.cpu.data          112                       # number of ReadReq MSHR misses
system.cpu.dcache.ReadReq_mshr_misses::total          112                       # number of ReadReq MSHR misses
system.cpu.dcache.ReadReq_mshr_miss_latency::.cpu.data     10176000                       # number of ReadReq MSHR miss cycles
system.cpu.dcache.ReadReq_mshr_miss_latency::total     10176000                       # number of ReadReq MSHR miss cycles
system.cpu.dcache.ReadReq_mshr_miss_rate::.cpu.data     0.045399                       # mshr miss rate for ReadReq accesses
system.cpu.dcache.ReadReq_mshr_miss_rate::total     0.045399                       # mshr miss rate for ReadReq accesses
system.cpu.dcache.ReadReq_avg_mshr_miss_latency::.cpu.data 90857.142857                       # average ReadReq mshr miss latency
system.cpu.dcache.ReadReq_avg_mshr_miss_latency::total 90857.142857                       # average ReadReq mshr miss latency
system.cpu.dcache.WriteReq_hits::.cpu.data       541131                       # number of WriteReq hits
system.cpu.dcache.WriteReq_hits::total         541131                       # number of WriteReq hits
system.cpu.dcache.WriteReq_misses::.cpu.data     13731534                       # number of WriteReq misses
system.cpu.dcache.WriteReq_misses::total     13731534                       # number of WriteReq misses
system.cpu.dcache.WriteReq_miss_latency::.cpu.data 1239569305000                       # number of WriteReq miss cycles
system.cpu.dcache.WriteReq_miss_latency::total 1239569305000                       # number of WriteReq miss cycles
system.cpu.dcache.WriteReq_accesses::.cpu.data     14272665                       # number of WriteReq accesses(hits+misses)
system.cpu.dcache.WriteReq_accesses::total     14272665                       # number of WriteReq accesses(hits+misses)
system.cpu.dcache.WriteReq_miss_rate::.cpu.data     0.962086                       # miss rate for WriteReq accesses
system.cpu.dcache.WriteReq_miss_rate::total     0.962086                       # miss rate for WriteReq accesses
system.cpu.dcache.WriteReq_avg_miss_latency::.cpu.data 90271.728199                       # average WriteReq miss latency
system.cpu.dcache.WriteReq_avg_miss_latency::total 90271.728199                       # average WriteReq miss latency
system.cpu.dcache.WriteReq_mshr_hits::.cpu.data     11947567                       # number of WriteReq MSHR hits
system.cpu.dcache.WriteReq_mshr_hits::total     11947567                       # number of WriteReq MSHR hits
system.cpu.dcache.WriteReq_mshr_misses::.cpu.data      1783967                       # number of WriteReq MSHR misses
system.cpu.dcache.WriteReq_mshr_misses::total      1783967                       # number of WriteReq MSHR misses
system.cpu.dcache.WriteReq_mshr_miss_latency::.cpu.data 209366865000                       # number of WriteReq MSHR miss cycles
system.cpu.dcache.WriteReq_mshr_miss_latency::total 209366865000                       # number of WriteReq MSHR miss cycles
system.cpu.dcache.WriteReq_mshr_miss_rate::.cpu.data     0.124992                       # mshr miss rate for WriteReq accesses
system.cpu.dcache.WriteReq_mshr_miss_rate::total     0.124992                       # mshr miss rate for WriteReq accesses
system.cpu.dcache.WriteReq_avg_mshr_miss_latency::.cpu.data 117360.279086                       # average WriteReq mshr miss latency
system.cpu.dcache.WriteReq_avg_mshr_miss_latency::total 117360.279086                       # average WriteReq mshr miss latency
system.cpu.dcache.SoftPFReq_hits::.cpu.data           24                       # number of SoftPFReq hits
system.cpu.dcache.SoftPFReq_hits::total            24                       # number of SoftPFReq hits
system.cpu.dcache.SoftPFReq_misses::.cpu.data            2                       # number of SoftPFReq misses
system.cpu.dcache.SoftPFReq_misses::total            2                       # number of SoftPFReq misses
system.cpu.dcache.SoftPFReq_accesses::.cpu.data           26                       # number of SoftPFReq accesses(hits+misses)
system.cpu.dcache.SoftPFReq_accesses::total           26                       # number of SoftPFReq accesses(hits+misses)
system.cpu.dcache.SoftPFReq_miss_rate::.cpu.data     0.076923                       # miss rate for SoftPFReq accesses
system.cpu.dcache.SoftPFReq_miss_rate::total     0.076923                       # miss rate for SoftPFReq accesses
system.cpu.dcache.SoftPFReq_mshr_misses::.cpu.data            2                       # number of SoftPFReq MSHR misses
system.cpu.dcache.SoftPFReq_mshr_misses::total            2                       # number of SoftPFReq MSHR misses
system.cpu.dcache.SoftPFReq_mshr_miss_latency::.cpu.data       184500                       # number of SoftPFReq MSHR miss cycles
system.cpu.dcache.SoftPFReq_mshr_miss_latency::total       184500                       # number of SoftPFReq MSHR miss cycles
system.cpu.dcache.SoftPFReq_mshr_miss_rate::.cpu.data     0.076923                       # mshr miss rate for SoftPFReq accesses
system.cpu.dcache.SoftPFReq_mshr_miss_rate::total     0.076923                       # mshr miss rate for SoftPFReq accesses
system.cpu.dcache.SoftPFReq_avg_mshr_miss_latency::.cpu.data        92250                       # average SoftPFReq mshr miss latency
system.cpu.dcache.SoftPFReq_avg_mshr_miss_latency::total        92250                       # average SoftPFReq mshr miss latency
system.cpu.dcache.WriteLineReq_misses::.cpu.data            7                       # number of WriteLineReq misses
system.cpu.dcache.WriteLineReq_misses::total            7                       # number of WriteLineReq misses
system.cpu.dcache.WriteLineReq_miss_latency::.cpu.data       221000                       # number of WriteLineReq miss cycles
system.cpu.dcache.WriteLineReq_miss_latency::total       221000                       # number of WriteLineReq miss cycles
system.cpu.dcache.WriteLineReq_accesses::.cpu.data            7                       # number of WriteLineReq accesses(hits+misses)
system.cpu.dcache.WriteLineReq_accesses::total            7                       # number of WriteLineReq accesses(hits+misses)
system.cpu.dcache.WriteLineReq_miss_rate::.cpu.data            1                       # miss rate for WriteLineReq accesses
system.cpu.dcache.WriteLineReq_miss_rate::total            1                       # miss rate for WriteLineReq accesses
system.cpu.dcache.WriteLineReq_avg_miss_latency::.cpu.data 31571.428571                       # average WriteLineReq miss latency
system.cpu.dcache.WriteLineReq_avg_miss_latency::total 31571.428571                       # average WriteLineReq miss latency
system.cpu.dcache.WriteLineReq_mshr_misses::.cpu.data            7                       # number of WriteLineReq MSHR misses
system.cpu.dcache.WriteLineReq_mshr_misses::total            7                       # number of WriteLineReq MSHR misses
system.cpu.dcache.WriteLineReq_mshr_miss_latency::.cpu.data       214000                       # number of WriteLineReq MSHR miss cycles
system.cpu.dcache.WriteLineReq_mshr_miss_latency::total       214000                       # number of WriteLineReq MSHR miss cycles
system.cpu.dcache.WriteLineReq_mshr_miss_rate::.cpu.data            1                       # mshr miss rate for WriteLineReq accesses
system.cpu.dcache.WriteLineReq_mshr_miss_rate::total            1                       # mshr miss rate for WriteLineReq accesses
system.cpu.dcache.WriteLineReq_avg_mshr_miss_latency::.cpu.data 30571.428571                       # average WriteLineReq mshr miss latency
system.cpu.dcache.WriteLineReq_avg_mshr_miss_latency::total 30571.428571                       # average WriteLineReq mshr miss latency
system.cpu.dcache.LoadLockedReq_hits::.cpu.data           15                       # number of LoadLockedReq hits
system.cpu.dcache.LoadLockedReq_hits::total           15                       # number of LoadLockedReq hits
system.cpu.dcache.LoadLockedReq_misses::.cpu.data            1                       # number of LoadLockedReq misses
system.cpu.dcache.LoadLockedReq_misses::total            1                       # number of LoadLockedReq misses
system.cpu.dcache.LoadLockedReq_miss_latency::.cpu.data        78500                       # number of LoadLockedReq miss cycles
system.cpu.dcache.LoadLockedReq_miss_latency::total        78500                       # number of LoadLockedReq miss cycles
system.cpu.dcache.LoadLockedReq_accesses::.cpu.data           16                       # number of LoadLockedReq accesses(hits+misses)
system.cpu.dcache.LoadLockedReq_accesses::total           16                       # number of LoadLockedReq accesses(hits+misses)
system.cpu.dcache.LoadLockedReq_miss_rate::.cpu.data     0.062500                       # miss rate for LoadLockedReq accesses
system.cpu.dcache.LoadLockedReq_miss_rate::total     0.062500                       # miss rate for LoadLockedReq accesses
system.cpu.dcache.LoadLockedReq_avg_miss_latency::.cpu.data        78500                       # average LoadLockedReq miss latency
system.cpu.dcache.LoadLockedReq_avg_miss_latency::total        78500                       # average LoadLockedReq miss latency
system.cpu.dcache.LoadLockedReq_mshr_misses::.cpu.data            1                       # number of LoadLockedReq MSHR misses
system.cpu.dcache.LoadLockedReq_mshr_misses::total            1                       # number of LoadLockedReq MSHR misses
system.cpu.dcache.LoadLockedReq_mshr_miss_latency::.cpu.data        77500                       # number of LoadLockedReq MSHR miss cycles
system.cpu.dcache.LoadLockedReq_mshr_miss_latency::total        77500                       # number of LoadLockedReq MSHR miss cycles
system.cpu.dcache.LoadLockedReq_mshr_miss_rate::.cpu.data     0.062500                       # mshr miss rate for LoadLockedReq accesses
system.cpu.dcache.LoadLockedReq_mshr_miss_rate::total     0.062500                       # mshr miss rate for LoadLockedReq accesses
system.cpu.dcache.LoadLockedReq_avg_mshr_miss_latency::.cpu.data        77500                       # average LoadLockedReq mshr miss latency
system.cpu.dcache.LoadLockedReq_avg_mshr_miss_latency::total        77500                       # average LoadLockedReq mshr miss latency
system.cpu.dcache.StoreCondReq_hits::.cpu.data           14                       # number of StoreCondReq hits
system.cpu.dcache.StoreCondReq_hits::total           14                       # number of StoreCondReq hits
system.cpu.dcache.StoreCondReq_accesses::.cpu.data           14                       # number of StoreCondReq accesses(hits+misses)
system.cpu.dcache.StoreCondReq_accesses::total           14                       # number of StoreCondReq accesses(hits+misses)
system.cpu.dcache.power_state.pwrStateResidencyTicks::UNDEFINED  46993828500                       # Cumulative time (in ticks) in various power states
system.cpu.dcache.tags.tagsinuse          1023.224261                       # Cycle average of tags in use
system.cpu.dcache.tags.total_refs             2327484                       # Total number of references to valid blocks.
system.cpu.dcache.tags.sampled_refs           1784087                       # Sample count of references to valid blocks.
system.cpu.dcache.tags.avg_refs              1.304580                       # Average number of references to valid blocks.
system.cpu.dcache.tags.warmup_cycle            176500                       # Cycle when the warmup percentage was hit.
system.cpu.dcache.tags.occ_blocks::.cpu.data  1023.224261                       # Average occupied blocks per requestor
system.cpu.dcache.tags.occ_percent::.cpu.data     0.999242                       # Average percentage of cache occupancy
system.cpu.dcache.tags.occ_percent::total     0.999242                       # Average percentage of cache occupancy
system.cpu.dcache.tags.occ_task_id_blocks::1024         1024                       # Occupied blocks per task id
system.cpu.dcache.tags.age_task_id_blocks_1024::0          378                       # Occupied blocks per task id
system.cpu.dcache.tags.age_task_id_blocks_1024::1          646                       # Occupied blocks per task id
system.cpu.dcache.tags.occ_task_id_percent::1024            1                       # Percentage of cache occupancy per task id
system.cpu.dcache.tags.tag_accesses          30334477                       # Number of tag accesses
system.cpu.dcache.tags.data_accesses         30334477                       # Number of data accesses
system.cpu.dcache.tags.power_state.pwrStateResidencyTicks::UNDEFINED  46993828500                       # Cumulative time (in ticks) in various power states
system.cpu.power_state.pwrStateResidencyTicks::ON  46993828500                       # Cumulative time (in ticks) in various power states

---------- End Simulation Statistics   ----------
