
---------- Begin Simulation Statistics ----------
final_tick                                 5901077500                       # Number of ticks from beginning of simulation (restored from checkpoints and never reset)
host_inst_rate                                  41906                       # Simulator instruction rate (inst/s)
host_mem_usage                                 894808                       # Number of bytes of host memory used
host_op_rate                                    47517                       # Simulator op (including micro ops) rate (op/s)
host_seconds                                   238.63                       # Real time elapsed on the host
host_tick_rate                               24729222                       # Simulator tick rate (ticks/s)
sim_freq                                 1000000000000                       # Frequency of simulated ticks
sim_insts                                    10000000                       # Number of instructions simulated
sim_ops                                      11338771                       # Number of ops (including micro ops) simulated
sim_seconds                                  0.005901                       # Number of seconds simulated
sim_ticks                                  5901077500                       # Number of ticks simulated
system.cpu.branchPred.BTBCorrect                    0                       # Number of correct BTB predictions (this stat may not work properly.
system.cpu.branchPred.BTBHitPct             99.890353                       # BTB Hit Percentage
system.cpu.branchPred.BTBHits                  915570                       # Number of BTB hits
system.cpu.branchPred.BTBLookups               916575                       # Number of BTB lookups
system.cpu.branchPred.RASInCorrect                  2                       # Number of incorrect RAS predictions.
system.cpu.branchPred.condIncorrect               945                       # Number of conditional branches incorrect
system.cpu.branchPred.condPredicted           1792666                       # Number of conditional branches predicted
system.cpu.branchPred.indirectHits              30278                       # Number of indirect target hits.
system.cpu.branchPred.indirectLookups           30542                       # Number of indirect predictor lookups.
system.cpu.branchPred.indirectMisses              264                       # Number of indirect misses.
system.cpu.branchPred.lookups                 2231142                       # Number of BP lookups
system.cpu.branchPred.usedRAS                  109346                       # Number of times the RAS was used to get a target.
system.cpu.branchPredindirectMispredicted           77                       # Number of mispredicted indirect branches.
system.cpu.cc_regfile_reads                   4685124                       # number of cc regfile reads
system.cpu.cc_regfile_writes                  4442364                       # number of cc regfile writes
system.cpu.commit.amos                              0                       # Number of atomic instructions committed
system.cpu.commit.branchMispredicts               690                       # The number of times a branch was mispredicted
system.cpu.commit.branches                    2221351                       # Number of branches committed
system.cpu.commit.bw_lim_events                457951                       # number cycles where commit BW limit reached
system.cpu.commit.commitNonSpecStalls           12142                       # The number of times commit has been forced to stall to communicate backwards
system.cpu.commit.commitSquashedInsts           43471                       # The number of squashed insts skipped by commit
system.cpu.commit.committedInsts             10006066                       # Number of instructions committed
system.cpu.commit.committedOps               11344837                       # Number of ops (including micro ops) committed
system.cpu.commit.committed_per_cycle::samples     10484967                       # Number of insts commited each cycle
system.cpu.commit.committed_per_cycle::mean     1.082010                       # Number of insts commited each cycle
system.cpu.commit.committed_per_cycle::stdev     2.072267                       # Number of insts commited each cycle
system.cpu.commit.committed_per_cycle::underflows            0      0.00%      0.00% # Number of insts commited each cycle
system.cpu.commit.committed_per_cycle::0      6818886     65.03%     65.03% # Number of insts commited each cycle
system.cpu.commit.committed_per_cycle::1      1427526     13.61%     78.65% # Number of insts commited each cycle
system.cpu.commit.committed_per_cycle::2       671179      6.40%     85.05% # Number of insts commited each cycle
system.cpu.commit.committed_per_cycle::3       386060      3.68%     88.73% # Number of insts commited each cycle
system.cpu.commit.committed_per_cycle::4       282685      2.70%     91.43% # Number of insts commited each cycle
system.cpu.commit.committed_per_cycle::5       149566      1.43%     92.86% # Number of insts commited each cycle
system.cpu.commit.committed_per_cycle::6       163203      1.56%     94.41% # Number of insts commited each cycle
system.cpu.commit.committed_per_cycle::7       127911      1.22%     95.63% # Number of insts commited each cycle
system.cpu.commit.committed_per_cycle::8       457951      4.37%    100.00% # Number of insts commited each cycle
system.cpu.commit.committed_per_cycle::overflows            0      0.00%    100.00% # Number of insts commited each cycle
system.cpu.commit.committed_per_cycle::min_value            0                       # Number of insts commited each cycle
system.cpu.commit.committed_per_cycle::max_value            8                       # Number of insts commited each cycle
system.cpu.commit.committed_per_cycle::total     10484967                       # Number of insts commited each cycle
system.cpu.commit.fp_insts                          0                       # Number of committed floating point instructions.
system.cpu.commit.function_calls               109017                       # Number of function calls committed.
system.cpu.commit.int_insts                   9861989                       # Number of committed integer instructions.
system.cpu.commit.loads                       1710889                       # Number of loads committed
system.cpu.commit.membars                       12120                       # Number of memory barriers committed
system.cpu.commit.op_class_0::No_OpClass         8314      0.07%      0.07% # Class of committed instruction
system.cpu.commit.op_class_0::IntAlu          7690808     67.79%     67.86% # Class of committed instruction
system.cpu.commit.op_class_0::IntMult           60460      0.53%     68.40% # Class of committed instruction
system.cpu.commit.op_class_0::IntDiv                3      0.00%     68.40% # Class of committed instruction
system.cpu.commit.op_class_0::FloatAdd              0      0.00%     68.40% # Class of committed instruction
system.cpu.commit.op_class_0::FloatCmp              0      0.00%     68.40% # Class of committed instruction
system.cpu.commit.op_class_0::FloatCvt              0      0.00%     68.40% # Class of committed instruction
system.cpu.commit.op_class_0::FloatMult             0      0.00%     68.40% # Class of committed instruction
system.cpu.commit.op_class_0::FloatMultAcc            0      0.00%     68.40% # Class of committed instruction
system.cpu.commit.op_class_0::FloatDiv              0      0.00%     68.40% # Class of committed instruction
system.cpu.commit.op_class_0::FloatMisc             0      0.00%     68.40% # Class of committed instruction
system.cpu.commit.op_class_0::FloatSqrt             0      0.00%     68.40% # Class of committed instruction
system.cpu.commit.op_class_0::SimdAdd           18890      0.17%     68.56% # Class of committed instruction
system.cpu.commit.op_class_0::SimdAddAcc            0      0.00%     68.56% # Class of committed instruction
system.cpu.commit.op_class_0::SimdAlu           18886      0.17%     68.73% # Class of committed instruction
system.cpu.commit.op_class_0::SimdCmp           16638      0.15%     68.88% # Class of committed instruction
system.cpu.commit.op_class_0::SimdCvt               0      0.00%     68.88% # Class of committed instruction
system.cpu.commit.op_class_0::SimdMisc          22677      0.20%     69.08% # Class of committed instruction
system.cpu.commit.op_class_0::SimdMult              0      0.00%     69.08% # Class of committed instruction
system.cpu.commit.op_class_0::SimdMultAcc            0      0.00%     69.08% # Class of committed instruction
system.cpu.commit.op_class_0::SimdShift             0      0.00%     69.08% # Class of committed instruction
system.cpu.commit.op_class_0::SimdShiftAcc            0      0.00%     69.08% # Class of committed instruction
system.cpu.commit.op_class_0::SimdDiv               0      0.00%     69.08% # Class of committed instruction
system.cpu.commit.op_class_0::SimdSqrt              0      0.00%     69.08% # Class of committed instruction
system.cpu.commit.op_class_0::SimdFloatAdd            0      0.00%     69.08% # Class of committed instruction
system.cpu.commit.op_class_0::SimdFloatAlu            0      0.00%     69.08% # Class of committed instruction
system.cpu.commit.op_class_0::SimdFloatCmp            0      0.00%     69.08% # Class of committed instruction
system.cpu.commit.op_class_0::SimdFloatCvt            0      0.00%     69.08% # Class of committed instruction
system.cpu.commit.op_class_0::SimdFloatDiv            0      0.00%     69.08% # Class of committed instruction
system.cpu.commit.op_class_0::SimdFloatMisc            0      0.00%     69.08% # Class of committed instruction
system.cpu.commit.op_class_0::SimdFloatMult            0      0.00%     69.08% # Class of committed instruction
system.cpu.commit.op_class_0::SimdFloatMultAcc            0      0.00%     69.08% # Class of committed instruction
system.cpu.commit.op_class_0::SimdFloatSqrt            0      0.00%     69.08% # Class of committed instruction
system.cpu.commit.op_class_0::SimdReduceAdd            0      0.00%     69.08% # Class of committed instruction
system.cpu.commit.op_class_0::SimdReduceAlu            0      0.00%     69.08% # Class of committed instruction
system.cpu.commit.op_class_0::SimdReduceCmp            0      0.00%     69.08% # Class of committed instruction
system.cpu.commit.op_class_0::SimdFloatReduceAdd            0      0.00%     69.08% # Class of committed instruction
system.cpu.commit.op_class_0::SimdFloatReduceCmp            0      0.00%     69.08% # Class of committed instruction
system.cpu.commit.op_class_0::SimdAes               0      0.00%     69.08% # Class of committed instruction
system.cpu.commit.op_class_0::SimdAesMix            0      0.00%     69.08% # Class of committed instruction
system.cpu.commit.op_class_0::SimdSha1Hash            0      0.00%     69.08% # Class of committed instruction
system.cpu.commit.op_class_0::SimdSha1Hash2            0      0.00%     69.08% # Class of committed instruction
system.cpu.commit.op_class_0::SimdSha256Hash            0      0.00%     69.08% # Class of committed instruction
system.cpu.commit.op_class_0::SimdSha256Hash2            0      0.00%     69.08% # Class of committed instruction
system.cpu.commit.op_class_0::SimdShaSigma2            0      0.00%     69.08% # Class of committed instruction
system.cpu.commit.op_class_0::SimdShaSigma3            0      0.00%     69.08% # Class of committed instruction
system.cpu.commit.op_class_0::SimdPredAlu            0      0.00%     69.08% # Class of committed instruction
system.cpu.commit.op_class_0::MemRead         1710889     15.08%     84.16% # Class of committed instruction
system.cpu.commit.op_class_0::MemWrite        1797272     15.84%    100.00% # Class of committed instruction
system.cpu.commit.op_class_0::FloatMemRead            0      0.00%    100.00% # Class of committed instruction
system.cpu.commit.op_class_0::FloatMemWrite            0      0.00%    100.00% # Class of committed instruction
system.cpu.commit.op_class_0::IprAccess             0      0.00%    100.00% # Class of committed instruction
system.cpu.commit.op_class_0::InstPrefetch            0      0.00%    100.00% # Class of committed instruction
system.cpu.commit.op_class_0::total          11344837                       # Class of committed instruction
system.cpu.commit.refs                        3508161                       # Number of memory references committed
system.cpu.commit.swp_count                         0                       # Number of s/w prefetches committed
system.cpu.commit.vec_insts                    198825                       # Number of committed Vector instructions.
system.cpu.committedInsts                    10000000                       # Number of Instructions Simulated
system.cpu.committedOps                      11338771                       # Number of Ops (including micro ops) Simulated
system.cpu.cpi                               1.180216                       # CPI: Cycles Per Instruction
system.cpu.cpi_total                         1.180216                       # CPI: Total CPI of All Threads
system.cpu.decode.BlockedCycles               2671912                       # Number of cycles decode is blocked
system.cpu.decode.BranchMispred                   259                       # Number of times decode detected a branch misprediction
system.cpu.decode.BranchResolved               914831                       # Number of times decode resolved a branch
system.cpu.decode.DecodedInsts               11401292                       # Number of instructions handled by decode
system.cpu.decode.IdleCycles                  5606099                       # Number of cycles decode is idle
system.cpu.decode.RunCycles                   2180181                       # Number of cycles decode is running
system.cpu.decode.SquashCycles                   1358                       # Number of cycles decode is squashing
system.cpu.decode.SquashedInsts                   957                       # Number of squashed instructions handled by decode
system.cpu.decode.UnblockCycles                 31473                       # Number of cycles decode is unblocking
system.cpu.dtb.accesses                             0                       # DTB accesses
system.cpu.dtb.align_faults                         0                       # Number of TLB faults due to alignment restrictions
system.cpu.dtb.domain_faults                        0                       # Number of TLB faults due to domain restrictions
system.cpu.dtb.flush_entries                        0                       # Number of entries that have been flushed from TLB
system.cpu.dtb.flush_tlb                            0                       # Number of times complete TLB was flushed
system.cpu.dtb.flush_tlb_asid                       0                       # Number of times TLB was flushed by ASID
system.cpu.dtb.flush_tlb_mva                        0                       # Number of times TLB was flushed by MVA
system.cpu.dtb.flush_tlb_mva_asid                   0                       # Number of times TLB was flushed by MVA & ASID
system.cpu.dtb.hits                                 0                       # DTB hits
system.cpu.dtb.inst_accesses                        0                       # ITB inst accesses
system.cpu.dtb.inst_hits                            0                       # ITB inst hits
system.cpu.dtb.inst_misses                          0                       # ITB inst misses
system.cpu.dtb.misses                               0                       # DTB misses
system.cpu.dtb.perms_faults                         0                       # Number of TLB faults due to permissions restrictions
system.cpu.dtb.prefetch_faults                      0                       # Number of TLB faults due to prefetch
system.cpu.dtb.read_accesses                        0                       # DTB read accesses
system.cpu.dtb.read_hits                            0                       # DTB read hits
system.cpu.dtb.read_misses                          0                       # DTB read misses
system.cpu.dtb.stage2_mmu.stage2_tlb.accesses            0                       # DTB accesses
system.cpu.dtb.stage2_mmu.stage2_tlb.align_faults            0                       # Number of TLB faults due to alignment restrictions
system.cpu.dtb.stage2_mmu.stage2_tlb.domain_faults            0                       # Number of TLB faults due to domain restrictions
system.cpu.dtb.stage2_mmu.stage2_tlb.flush_entries            0                       # Number of entries that have been flushed from TLB
system.cpu.dtb.stage2_mmu.stage2_tlb.flush_tlb            0                       # Number of times complete TLB was flushed
system.cpu.dtb.stage2_mmu.stage2_tlb.flush_tlb_asid            0                       # Number of times TLB was flushed by ASID
system.cpu.dtb.stage2_mmu.stage2_tlb.flush_tlb_mva            0                       # Number of times TLB was flushed by MVA
system.cpu.dtb.stage2_mmu.stage2_tlb.flush_tlb_mva_asid            0                       # Number of times TLB was flushed by MVA & ASID
system.cpu.dtb.stage2_mmu.stage2_tlb.hits            0                       # DTB hits
system.cpu.dtb.stage2_mmu.stage2_tlb.inst_accesses            0                       # ITB inst accesses
system.cpu.dtb.stage2_mmu.stage2_tlb.inst_hits            0                       # ITB inst hits
system.cpu.dtb.stage2_mmu.stage2_tlb.inst_misses            0                       # ITB inst misses
system.cpu.dtb.stage2_mmu.stage2_tlb.misses            0                       # DTB misses
system.cpu.dtb.stage2_mmu.stage2_tlb.perms_faults            0                       # Number of TLB faults due to permissions restrictions
system.cpu.dtb.stage2_mmu.stage2_tlb.prefetch_faults            0                       # Number of TLB faults due to prefetch
system.cpu.dtb.stage2_mmu.stage2_tlb.read_accesses            0                       # DTB read accesses
system.cpu.dtb.stage2_mmu.stage2_tlb.read_hits            0                       # DTB read hits
system.cpu.dtb.stage2_mmu.stage2_tlb.read_misses            0                       # DTB read misses
system.cpu.dtb.stage2_mmu.stage2_tlb.walker.walkRequestOrigin_Requested::Data            0                       # Table walker requests started/completed, data/inst
system.cpu.dtb.stage2_mmu.stage2_tlb.walker.walkRequestOrigin_Requested::Inst            0                       # Table walker requests started/completed, data/inst
system.cpu.dtb.stage2_mmu.stage2_tlb.walker.walkRequestOrigin_Requested::total            0                       # Table walker requests started/completed, data/inst
system.cpu.dtb.stage2_mmu.stage2_tlb.walker.walkRequestOrigin_Completed::Data            0                       # Table walker requests started/completed, data/inst
system.cpu.dtb.stage2_mmu.stage2_tlb.walker.walkRequestOrigin_Completed::Inst            0                       # Table walker requests started/completed, data/inst
system.cpu.dtb.stage2_mmu.stage2_tlb.walker.walkRequestOrigin_Completed::total            0                       # Table walker requests started/completed, data/inst
system.cpu.dtb.stage2_mmu.stage2_tlb.walker.walkRequestOrigin::total            0                       # Table walker requests started/completed, data/inst
system.cpu.dtb.stage2_mmu.stage2_tlb.walker.walks            0                       # Table walker walks requested
system.cpu.dtb.stage2_mmu.stage2_tlb.write_accesses            0                       # DTB write accesses
system.cpu.dtb.stage2_mmu.stage2_tlb.write_hits            0                       # DTB write hits
system.cpu.dtb.stage2_mmu.stage2_tlb.write_misses            0                       # DTB write misses
system.cpu.dtb.walker.walkRequestOrigin_Requested::Data            0                       # Table walker requests started/completed, data/inst
system.cpu.dtb.walker.walkRequestOrigin_Requested::Inst            0                       # Table walker requests started/completed, data/inst
system.cpu.dtb.walker.walkRequestOrigin_Requested::total            0                       # Table walker requests started/completed, data/inst
system.cpu.dtb.walker.walkRequestOrigin_Completed::Data            0                       # Table walker requests started/completed, data/inst
system.cpu.dtb.walker.walkRequestOrigin_Completed::Inst            0                       # Table walker requests started/completed, data/inst
system.cpu.dtb.walker.walkRequestOrigin_Completed::total            0                       # Table walker requests started/completed, data/inst
system.cpu.dtb.walker.walkRequestOrigin::total            0                       # Table walker requests started/completed, data/inst
system.cpu.dtb.walker.walks                         0                       # Table walker walks requested
system.cpu.dtb.write_accesses                       0                       # DTB write accesses
system.cpu.dtb.write_hits                           0                       # DTB write hits
system.cpu.dtb.write_misses                         0                       # DTB write misses
system.cpu.fetch.Branches                     2231142                       # Number of branches that fetch encountered
system.cpu.fetch.CacheLines                   1485830                       # Number of cache lines fetched
system.cpu.fetch.Cycles                       4348851                       # Number of cycles fetch has run and was not squashing or blocked
system.cpu.fetch.IcacheSquashes                   820                       # Number of outstanding Icache misses that were squashed
system.cpu.fetch.Insts                       10072128                       # Number of instructions fetch has processed
system.cpu.fetch.SquashCycles                    3226                       # Number of cycles fetch has spent squashing
system.cpu.fetch.branchRate                  0.189045                       # Number of branch fetches per cycle
system.cpu.fetch.icacheStallCycles            6140559                       # Number of cycles fetch is stalled on an Icache miss
system.cpu.fetch.predictedBranches            1055194                       # Number of branches that fetch has predicted taken
system.cpu.fetch.rate                        0.853414                       # Number of inst fetches per cycle
system.cpu.fetch.rateDist::samples           10491023                       # Number of instructions fetched each cycle (Total)
system.cpu.fetch.rateDist::mean              1.088666                       # Number of instructions fetched each cycle (Total)
system.cpu.fetch.rateDist::stdev             2.393645                       # Number of instructions fetched each cycle (Total)
system.cpu.fetch.rateDist::underflows               0      0.00%      0.00% # Number of instructions fetched each cycle (Total)
system.cpu.fetch.rateDist::0                  8232264     78.47%     78.47% # Number of instructions fetched each cycle (Total)
system.cpu.fetch.rateDist::1                   236844      2.26%     80.73% # Number of instructions fetched each cycle (Total)
system.cpu.fetch.rateDist::2                   204136      1.95%     82.67% # Number of instructions fetched each cycle (Total)
system.cpu.fetch.rateDist::3                   291344      2.78%     85.45% # Number of instructions fetched each cycle (Total)
system.cpu.fetch.rateDist::4                   375674      3.58%     89.03% # Number of instructions fetched each cycle (Total)
system.cpu.fetch.rateDist::5                   199677      1.90%     90.93% # Number of instructions fetched each cycle (Total)
system.cpu.fetch.rateDist::6                    55145      0.53%     91.46% # Number of instructions fetched each cycle (Total)
system.cpu.fetch.rateDist::7                    97394      0.93%     92.39% # Number of instructions fetched each cycle (Total)
system.cpu.fetch.rateDist::8                   798545      7.61%    100.00% # Number of instructions fetched each cycle (Total)
system.cpu.fetch.rateDist::overflows                0      0.00%    100.00% # Number of instructions fetched each cycle (Total)
system.cpu.fetch.rateDist::min_value                0                       # Number of instructions fetched each cycle (Total)
system.cpu.fetch.rateDist::max_value                8                       # Number of instructions fetched each cycle (Total)
system.cpu.fetch.rateDist::total             10491023                       # Number of instructions fetched each cycle (Total)
system.cpu.icache.prefetcher.num_hwpf_issued      2076370                       # number of hwpf issued
system.cpu.icache.prefetcher.pfBufferHit      5928110                       # number of redundant prefetches already in prefetch queue
system.cpu.icache.prefetcher.pfIdentified      9059378                       # number of prefetch candidates identified
system.cpu.icache.prefetcher.pfInCache              0                       # number of redundant prefetches already in cache/mshr dropped
system.cpu.icache.prefetcher.pfRemovedFull        84811                       # number of prefetches dropped due to prefetch queue size
system.cpu.icache.prefetcher.pfSpanPage      44084783                       # number of prefetches that crossed the page
system.cpu.idleCycles                         1311133                       # Total number of cycles that the CPU has spent unscheduled due to idling
system.cpu.iew.branchMispredicts                  803                       # Number of branch mispredicts detected at execute
system.cpu.iew.exec_branches                  2224981                       # Number of branches executed
system.cpu.iew.exec_nop                          6097                       # number of nop insts executed
system.cpu.iew.exec_rate                     0.972628                       # Inst execution rate
system.cpu.iew.exec_refs                      3626239                       # number of memory reference insts executed
system.cpu.iew.exec_stores                    1813181                       # Number of stores executed
system.cpu.iew.exec_swp                             0                       # number of swp insts executed
system.cpu.iew.iewBlockCycles                    4967                       # Number of cycles IEW is blocking
system.cpu.iew.iewDispLoadInsts               1716801                       # Number of dispatched load instructions
system.cpu.iew.iewDispNonSpecInsts              12171                       # Number of dispatched non-speculative instructions
system.cpu.iew.iewDispSquashedInsts               375                       # Number of squashed instructions skipped by dispatch
system.cpu.iew.iewDispStoreInsts              1814837                       # Number of dispatched store instructions
system.cpu.iew.iewDispatchedInsts            11393760                       # Number of instructions dispatched to IQ
system.cpu.iew.iewExecLoadInsts               1813058                       # Number of load instructions executed
system.cpu.iew.iewExecSquashedInsts               833                       # Number of squashed instructions skipped in execute
system.cpu.iew.iewExecutedInsts              11479106                       # Number of executed instructions
system.cpu.iew.iewIQFullEvents                     12                       # Number of times the IQ has become full, causing a stall
system.cpu.iew.iewIdleCycles                        0                       # Number of cycles IEW is idle
system.cpu.iew.iewLSQFullEvents                102694                       # Number of times the LSQ has become full, causing a stall
system.cpu.iew.iewSquashCycles                   1358                       # Number of cycles IEW is squashing
system.cpu.iew.iewUnblockCycles                102553                       # Number of cycles IEW is unblocking
system.cpu.iew.lsq.thread0.blockedLoads             0                       # Number of blocked loads due to partial load-store forwarding
system.cpu.iew.lsq.thread0.cacheBlocked             0                       # Number of times an access to memory failed due to the cache being blocked
system.cpu.iew.lsq.thread0.forwLoads            84640                       # Number of loads that had data forwarded from stores
system.cpu.iew.lsq.thread0.ignoredResponses            2                       # Number of memory responses ignored because the instruction is squashed
system.cpu.iew.lsq.thread0.invAddrLoads             0                       # Number of loads ignored due to an invalid address
system.cpu.iew.lsq.thread0.invAddrSwpfs             0                       # Number of software prefetches ignored due to an invalid address
system.cpu.iew.lsq.thread0.memOrderViolation           55                       # Number of memory ordering violations
system.cpu.iew.lsq.thread0.rescheduledLoads        96746                       # Number of loads that were rescheduled
system.cpu.iew.lsq.thread0.squashedLoads         5911                       # Number of loads squashed
system.cpu.iew.lsq.thread0.squashedStores        17564                       # Number of stores squashed
system.cpu.iew.memOrderViolationEvents             55                       # Number of memory order violations
system.cpu.iew.predictedNotTakenIncorrect          682                       # Number of branches that were predicted not taken incorrectly
system.cpu.iew.predictedTakenIncorrect            121                       # Number of branches that were predicted taken incorrectly
system.cpu.iew.wb_consumers                  10389959                       # num instructions consuming a value
system.cpu.iew.wb_count                      11377752                       # cumulative count of insts written-back
system.cpu.iew.wb_fanout                     0.526213                       # average fanout of values written-back
system.cpu.iew.wb_producers                   5467329                       # num instructions producing a value
system.cpu.iew.wb_rate                       0.964040                       # insts written-back per cycle
system.cpu.iew.wb_sent                       11381135                       # cumulative count of insts sent to commit
system.cpu.int_regfile_reads                 13065616                       # number of integer regfile reads
system.cpu.int_regfile_writes                 7578809                       # number of integer regfile writes
system.cpu.ipc                               0.847303                       # IPC: Instructions Per Cycle
system.cpu.ipc_total                         0.847303                       # IPC: Total IPC of All Threads
system.cpu.iq.FU_type_0::No_OpClass              8328      0.07%      0.07% # Type of FU issued
system.cpu.iq.FU_type_0::IntAlu               7707285     67.14%     67.21% # Type of FU issued
system.cpu.iq.FU_type_0::IntMult                60466      0.53%     67.74% # Type of FU issued
system.cpu.iq.FU_type_0::IntDiv                     3      0.00%     67.74% # Type of FU issued
system.cpu.iq.FU_type_0::FloatAdd                   0      0.00%     67.74% # Type of FU issued
system.cpu.iq.FU_type_0::FloatCmp                   0      0.00%     67.74% # Type of FU issued
system.cpu.iq.FU_type_0::FloatCvt                   0      0.00%     67.74% # Type of FU issued
system.cpu.iq.FU_type_0::FloatMult                  0      0.00%     67.74% # Type of FU issued
system.cpu.iq.FU_type_0::FloatMultAcc               0      0.00%     67.74% # Type of FU issued
system.cpu.iq.FU_type_0::FloatDiv                   0      0.00%     67.74% # Type of FU issued
system.cpu.iq.FU_type_0::FloatMisc                  0      0.00%     67.74% # Type of FU issued
system.cpu.iq.FU_type_0::FloatSqrt                  0      0.00%     67.74% # Type of FU issued
system.cpu.iq.FU_type_0::SimdAdd                18933      0.16%     67.90% # Type of FU issued
system.cpu.iq.FU_type_0::SimdAddAcc                 0      0.00%     67.90% # Type of FU issued
system.cpu.iq.FU_type_0::SimdAlu                18930      0.16%     68.07% # Type of FU issued
system.cpu.iq.FU_type_0::SimdCmp                16666      0.15%     68.21% # Type of FU issued
system.cpu.iq.FU_type_0::SimdCvt                    0      0.00%     68.21% # Type of FU issued
system.cpu.iq.FU_type_0::SimdMisc               22718      0.20%     68.41% # Type of FU issued
system.cpu.iq.FU_type_0::SimdMult                   0      0.00%     68.41% # Type of FU issued
system.cpu.iq.FU_type_0::SimdMultAcc                0      0.00%     68.41% # Type of FU issued
system.cpu.iq.FU_type_0::SimdShift                  0      0.00%     68.41% # Type of FU issued
system.cpu.iq.FU_type_0::SimdShiftAcc               0      0.00%     68.41% # Type of FU issued
system.cpu.iq.FU_type_0::SimdDiv                    0      0.00%     68.41% # Type of FU issued
system.cpu.iq.FU_type_0::SimdSqrt                   0      0.00%     68.41% # Type of FU issued
system.cpu.iq.FU_type_0::SimdFloatAdd               0      0.00%     68.41% # Type of FU issued
system.cpu.iq.FU_type_0::SimdFloatAlu               0      0.00%     68.41% # Type of FU issued
system.cpu.iq.FU_type_0::SimdFloatCmp               0      0.00%     68.41% # Type of FU issued
system.cpu.iq.FU_type_0::SimdFloatCvt               0      0.00%     68.41% # Type of FU issued
system.cpu.iq.FU_type_0::SimdFloatDiv               0      0.00%     68.41% # Type of FU issued
system.cpu.iq.FU_type_0::SimdFloatMisc              0      0.00%     68.41% # Type of FU issued
system.cpu.iq.FU_type_0::SimdFloatMult              0      0.00%     68.41% # Type of FU issued
system.cpu.iq.FU_type_0::SimdFloatMultAcc            0      0.00%     68.41% # Type of FU issued
system.cpu.iq.FU_type_0::SimdFloatSqrt              0      0.00%     68.41% # Type of FU issued
system.cpu.iq.FU_type_0::SimdReduceAdd              0      0.00%     68.41% # Type of FU issued
system.cpu.iq.FU_type_0::SimdReduceAlu              0      0.00%     68.41% # Type of FU issued
system.cpu.iq.FU_type_0::SimdReduceCmp              0      0.00%     68.41% # Type of FU issued
system.cpu.iq.FU_type_0::SimdFloatReduceAdd            0      0.00%     68.41% # Type of FU issued
system.cpu.iq.FU_type_0::SimdFloatReduceCmp            0      0.00%     68.41% # Type of FU issued
system.cpu.iq.FU_type_0::SimdAes                    0      0.00%     68.41% # Type of FU issued
system.cpu.iq.FU_type_0::SimdAesMix                 0      0.00%     68.41% # Type of FU issued
system.cpu.iq.FU_type_0::SimdSha1Hash               0      0.00%     68.41% # Type of FU issued
system.cpu.iq.FU_type_0::SimdSha1Hash2              0      0.00%     68.41% # Type of FU issued
system.cpu.iq.FU_type_0::SimdSha256Hash             0      0.00%     68.41% # Type of FU issued
system.cpu.iq.FU_type_0::SimdSha256Hash2            0      0.00%     68.41% # Type of FU issued
system.cpu.iq.FU_type_0::SimdShaSigma2              0      0.00%     68.41% # Type of FU issued
system.cpu.iq.FU_type_0::SimdShaSigma3              0      0.00%     68.41% # Type of FU issued
system.cpu.iq.FU_type_0::SimdPredAlu                0      0.00%     68.41% # Type of FU issued
system.cpu.iq.FU_type_0::MemRead              1813235     15.79%     84.20% # Type of FU issued
system.cpu.iq.FU_type_0::MemWrite             1813381     15.80%    100.00% # Type of FU issued
system.cpu.iq.FU_type_0::FloatMemRead               0      0.00%    100.00% # Type of FU issued
system.cpu.iq.FU_type_0::FloatMemWrite              0      0.00%    100.00% # Type of FU issued
system.cpu.iq.FU_type_0::IprAccess                  0      0.00%    100.00% # Type of FU issued
system.cpu.iq.FU_type_0::InstPrefetch               0      0.00%    100.00% # Type of FU issued
system.cpu.iq.FU_type_0::total               11479945                       # Type of FU issued
system.cpu.iq.fp_alu_accesses                       0                       # Number of floating point alu accesses
system.cpu.iq.fp_inst_queue_reads                   0                       # Number of floating instruction queue reads
system.cpu.iq.fp_inst_queue_wakeup_accesses            0                       # Number of floating instruction queue wakeup accesses
system.cpu.iq.fp_inst_queue_writes                  0                       # Number of floating instruction queue writes
system.cpu.iq.fu_busy_cnt                      233720                       # FU busy when requested
system.cpu.iq.fu_busy_rate                   0.020359                       # FU busy rate (busy events/executed inst)
system.cpu.iq.fu_full::No_OpClass                   0      0.00%      0.00% # attempts to use FU when none available
system.cpu.iq.fu_full::IntAlu                   42013     17.98%     17.98% # attempts to use FU when none available
system.cpu.iq.fu_full::IntMult                      0      0.00%     17.98% # attempts to use FU when none available
system.cpu.iq.fu_full::IntDiv                       0      0.00%     17.98% # attempts to use FU when none available
system.cpu.iq.fu_full::FloatAdd                     0      0.00%     17.98% # attempts to use FU when none available
system.cpu.iq.fu_full::FloatCmp                     0      0.00%     17.98% # attempts to use FU when none available
system.cpu.iq.fu_full::FloatCvt                     0      0.00%     17.98% # attempts to use FU when none available
system.cpu.iq.fu_full::FloatMult                    0      0.00%     17.98% # attempts to use FU when none available
system.cpu.iq.fu_full::FloatMultAcc                 0      0.00%     17.98% # attempts to use FU when none available
system.cpu.iq.fu_full::FloatDiv                     0      0.00%     17.98% # attempts to use FU when none available
system.cpu.iq.fu_full::FloatMisc                    0      0.00%     17.98% # attempts to use FU when none available
system.cpu.iq.fu_full::FloatSqrt                    0      0.00%     17.98% # attempts to use FU when none available
system.cpu.iq.fu_full::SimdAdd                      0      0.00%     17.98% # attempts to use FU when none available
system.cpu.iq.fu_full::SimdAddAcc                   0      0.00%     17.98% # attempts to use FU when none available
system.cpu.iq.fu_full::SimdAlu                      2      0.00%     17.98% # attempts to use FU when none available
system.cpu.iq.fu_full::SimdCmp                      2      0.00%     17.98% # attempts to use FU when none available
system.cpu.iq.fu_full::SimdCvt                      0      0.00%     17.98% # attempts to use FU when none available
system.cpu.iq.fu_full::SimdMisc                     0      0.00%     17.98% # attempts to use FU when none available
system.cpu.iq.fu_full::SimdMult                     0      0.00%     17.98% # attempts to use FU when none available
system.cpu.iq.fu_full::SimdMultAcc                  0      0.00%     17.98% # attempts to use FU when none available
system.cpu.iq.fu_full::SimdShift                    0      0.00%     17.98% # attempts to use FU when none available
system.cpu.iq.fu_full::SimdShiftAcc                 0      0.00%     17.98% # attempts to use FU when none available
system.cpu.iq.fu_full::SimdDiv                      0      0.00%     17.98% # attempts to use FU when none available
system.cpu.iq.fu_full::SimdSqrt                     0      0.00%     17.98% # attempts to use FU when none available
system.cpu.iq.fu_full::SimdFloatAdd                 0      0.00%     17.98% # attempts to use FU when none available
system.cpu.iq.fu_full::SimdFloatAlu                 0      0.00%     17.98% # attempts to use FU when none available
system.cpu.iq.fu_full::SimdFloatCmp                 0      0.00%     17.98% # attempts to use FU when none available
system.cpu.iq.fu_full::SimdFloatCvt                 0      0.00%     17.98% # attempts to use FU when none available
system.cpu.iq.fu_full::SimdFloatDiv                 0      0.00%     17.98% # attempts to use FU when none available
system.cpu.iq.fu_full::SimdFloatMisc                0      0.00%     17.98% # attempts to use FU when none available
system.cpu.iq.fu_full::SimdFloatMult                0      0.00%     17.98% # attempts to use FU when none available
system.cpu.iq.fu_full::SimdFloatMultAcc             0      0.00%     17.98% # attempts to use FU when none available
system.cpu.iq.fu_full::SimdFloatSqrt                0      0.00%     17.98% # attempts to use FU when none available
system.cpu.iq.fu_full::SimdReduceAdd                0      0.00%     17.98% # attempts to use FU when none available
system.cpu.iq.fu_full::SimdReduceAlu                0      0.00%     17.98% # attempts to use FU when none available
system.cpu.iq.fu_full::SimdReduceCmp                0      0.00%     17.98% # attempts to use FU when none available
system.cpu.iq.fu_full::SimdFloatReduceAdd            0      0.00%     17.98% # attempts to use FU when none available
system.cpu.iq.fu_full::SimdFloatReduceCmp            0      0.00%     17.98% # attempts to use FU when none available
system.cpu.iq.fu_full::SimdAes                      0      0.00%     17.98% # attempts to use FU when none available
system.cpu.iq.fu_full::SimdAesMix                   0      0.00%     17.98% # attempts to use FU when none available
system.cpu.iq.fu_full::SimdSha1Hash                 0      0.00%     17.98% # attempts to use FU when none available
system.cpu.iq.fu_full::SimdSha1Hash2                0      0.00%     17.98% # attempts to use FU when none available
system.cpu.iq.fu_full::SimdSha256Hash               0      0.00%     17.98% # attempts to use FU when none available
system.cpu.iq.fu_full::SimdSha256Hash2              0      0.00%     17.98% # attempts to use FU when none available
system.cpu.iq.fu_full::SimdShaSigma2                0      0.00%     17.98% # attempts to use FU when none available
system.cpu.iq.fu_full::SimdShaSigma3                0      0.00%     17.98% # attempts to use FU when none available
system.cpu.iq.fu_full::SimdPredAlu                  0      0.00%     17.98% # attempts to use FU when none available
system.cpu.iq.fu_full::MemRead                  46536     19.91%     37.89% # attempts to use FU when none available
system.cpu.iq.fu_full::MemWrite                145167     62.11%    100.00% # attempts to use FU when none available
system.cpu.iq.fu_full::FloatMemRead                 0      0.00%    100.00% # attempts to use FU when none available
system.cpu.iq.fu_full::FloatMemWrite                0      0.00%    100.00% # attempts to use FU when none available
system.cpu.iq.fu_full::IprAccess                    0      0.00%    100.00% # attempts to use FU when none available
system.cpu.iq.fu_full::InstPrefetch                 0      0.00%    100.00% # attempts to use FU when none available
system.cpu.iq.int_alu_accesses               11490340                       # Number of integer alu accesses
system.cpu.iq.int_inst_queue_reads           33262225                       # Number of integer instruction queue reads
system.cpu.iq.int_inst_queue_wakeup_accesses     11178697                       # Number of integer instruction queue wakeup accesses
system.cpu.iq.int_inst_queue_writes          11236531                       # Number of integer instruction queue writes
system.cpu.iq.iqInstsAdded                   11375492                       # Number of instructions added to the IQ (excludes non-spec)
system.cpu.iq.iqInstsIssued                  11479945                       # Number of instructions issued
system.cpu.iq.iqNonSpecInstsAdded               12171                       # Number of non-speculative instructions added to the IQ
system.cpu.iq.iqSquashedInstsExamined           48879                       # Number of squashed instructions iterated over during squash; mainly for profiling
system.cpu.iq.iqSquashedInstsIssued                88                       # Number of squashed instructions issued
system.cpu.iq.iqSquashedNonSpecRemoved             29                       # Number of squashed non-spec instructions that were removed
system.cpu.iq.iqSquashedOperandsExamined        16595                       # Number of squashed operands that are examined and possibly removed from graph
system.cpu.iq.issued_per_cycle::samples      10491023                       # Number of insts issued each cycle
system.cpu.iq.issued_per_cycle::mean         1.094264                       # Number of insts issued each cycle
system.cpu.iq.issued_per_cycle::stdev        1.809572                       # Number of insts issued each cycle
system.cpu.iq.issued_per_cycle::underflows            0      0.00%      0.00% # Number of insts issued each cycle
system.cpu.iq.issued_per_cycle::0             6659353     63.48%     63.48% # Number of insts issued each cycle
system.cpu.iq.issued_per_cycle::1              981286      9.35%     72.83% # Number of insts issued each cycle
system.cpu.iq.issued_per_cycle::2              866083      8.26%     81.09% # Number of insts issued each cycle
system.cpu.iq.issued_per_cycle::3              672307      6.41%     87.49% # Number of insts issued each cycle
system.cpu.iq.issued_per_cycle::4              489023      4.66%     92.16% # Number of insts issued each cycle
system.cpu.iq.issued_per_cycle::5              360409      3.44%     95.59% # Number of insts issued each cycle
system.cpu.iq.issued_per_cycle::6              308220      2.94%     98.53% # Number of insts issued each cycle
system.cpu.iq.issued_per_cycle::7               92621      0.88%     99.41% # Number of insts issued each cycle
system.cpu.iq.issued_per_cycle::8               61721      0.59%    100.00% # Number of insts issued each cycle
system.cpu.iq.issued_per_cycle::overflows            0      0.00%    100.00% # Number of insts issued each cycle
system.cpu.iq.issued_per_cycle::min_value            0                       # Number of insts issued each cycle
system.cpu.iq.issued_per_cycle::max_value            8                       # Number of insts issued each cycle
system.cpu.iq.issued_per_cycle::total        10491023                       # Number of insts issued each cycle
system.cpu.iq.rate                           0.972699                       # Inst issue rate
system.cpu.iq.vec_alu_accesses                 214997                       # Number of vector alu accesses
system.cpu.iq.vec_inst_queue_reads             422490                       # Number of vector instruction queue reads
system.cpu.iq.vec_inst_queue_wakeup_accesses       199055                       # Number of vector instruction queue wakeup accesses
system.cpu.iq.vec_inst_queue_writes            200065                       # Number of vector instruction queue writes
system.cpu.itb.accesses                             0                       # DTB accesses
system.cpu.itb.align_faults                         0                       # Number of TLB faults due to alignment restrictions
system.cpu.itb.domain_faults                        0                       # Number of TLB faults due to domain restrictions
system.cpu.itb.flush_entries                        0                       # Number of entries that have been flushed from TLB
system.cpu.itb.flush_tlb                            0                       # Number of times complete TLB was flushed
system.cpu.itb.flush_tlb_asid                       0                       # Number of times TLB was flushed by ASID
system.cpu.itb.flush_tlb_mva                        0                       # Number of times TLB was flushed by MVA
system.cpu.itb.flush_tlb_mva_asid                   0                       # Number of times TLB was flushed by MVA & ASID
system.cpu.itb.hits                                 0                       # DTB hits
system.cpu.itb.inst_accesses                        0                       # ITB inst accesses
system.cpu.itb.inst_hits                            0                       # ITB inst hits
system.cpu.itb.inst_misses                          0                       # ITB inst misses
system.cpu.itb.misses                               0                       # DTB misses
system.cpu.itb.perms_faults                         0                       # Number of TLB faults due to permissions restrictions
system.cpu.itb.prefetch_faults                      0                       # Number of TLB faults due to prefetch
system.cpu.itb.read_accesses                        0                       # DTB read accesses
system.cpu.itb.read_hits                            0                       # DTB read hits
system.cpu.itb.read_misses                          0                       # DTB read misses
system.cpu.itb.stage2_mmu.stage2_tlb.accesses            0                       # DTB accesses
system.cpu.itb.stage2_mmu.stage2_tlb.align_faults            0                       # Number of TLB faults due to alignment restrictions
system.cpu.itb.stage2_mmu.stage2_tlb.domain_faults            0                       # Number of TLB faults due to domain restrictions
system.cpu.itb.stage2_mmu.stage2_tlb.flush_entries            0                       # Number of entries that have been flushed from TLB
system.cpu.itb.stage2_mmu.stage2_tlb.flush_tlb            0                       # Number of times complete TLB was flushed
system.cpu.itb.stage2_mmu.stage2_tlb.flush_tlb_asid            0                       # Number of times TLB was flushed by ASID
system.cpu.itb.stage2_mmu.stage2_tlb.flush_tlb_mva            0                       # Number of times TLB was flushed by MVA
system.cpu.itb.stage2_mmu.stage2_tlb.flush_tlb_mva_asid            0                       # Number of times TLB was flushed by MVA & ASID
system.cpu.itb.stage2_mmu.stage2_tlb.hits            0                       # DTB hits
system.cpu.itb.stage2_mmu.stage2_tlb.inst_accesses            0                       # ITB inst accesses
system.cpu.itb.stage2_mmu.stage2_tlb.inst_hits            0                       # ITB inst hits
system.cpu.itb.stage2_mmu.stage2_tlb.inst_misses            0                       # ITB inst misses
system.cpu.itb.stage2_mmu.stage2_tlb.misses            0                       # DTB misses
system.cpu.itb.stage2_mmu.stage2_tlb.perms_faults            0                       # Number of TLB faults due to permissions restrictions
system.cpu.itb.stage2_mmu.stage2_tlb.prefetch_faults            0                       # Number of TLB faults due to prefetch
system.cpu.itb.stage2_mmu.stage2_tlb.read_accesses            0                       # DTB read accesses
system.cpu.itb.stage2_mmu.stage2_tlb.read_hits            0                       # DTB read hits
system.cpu.itb.stage2_mmu.stage2_tlb.read_misses            0                       # DTB read misses
system.cpu.itb.stage2_mmu.stage2_tlb.walker.walkRequestOrigin_Requested::Data            0                       # Table walker requests started/completed, data/inst
system.cpu.itb.stage2_mmu.stage2_tlb.walker.walkRequestOrigin_Requested::Inst            0                       # Table walker requests started/completed, data/inst
system.cpu.itb.stage2_mmu.stage2_tlb.walker.walkRequestOrigin_Requested::total            0                       # Table walker requests started/completed, data/inst
system.cpu.itb.stage2_mmu.stage2_tlb.walker.walkRequestOrigin_Completed::Data            0                       # Table walker requests started/completed, data/inst
system.cpu.itb.stage2_mmu.stage2_tlb.walker.walkRequestOrigin_Completed::Inst            0                       # Table walker requests started/completed, data/inst
system.cpu.itb.stage2_mmu.stage2_tlb.walker.walkRequestOrigin_Completed::total            0                       # Table walker requests started/completed, data/inst
system.cpu.itb.stage2_mmu.stage2_tlb.walker.walkRequestOrigin::total            0                       # Table walker requests started/completed, data/inst
system.cpu.itb.stage2_mmu.stage2_tlb.walker.walks            0                       # Table walker walks requested
system.cpu.itb.stage2_mmu.stage2_tlb.write_accesses            0                       # DTB write accesses
system.cpu.itb.stage2_mmu.stage2_tlb.write_hits            0                       # DTB write hits
system.cpu.itb.stage2_mmu.stage2_tlb.write_misses            0                       # DTB write misses
system.cpu.itb.walker.walkRequestOrigin_Requested::Data            0                       # Table walker requests started/completed, data/inst
system.cpu.itb.walker.walkRequestOrigin_Requested::Inst            0                       # Table walker requests started/completed, data/inst
system.cpu.itb.walker.walkRequestOrigin_Requested::total            0                       # Table walker requests started/completed, data/inst
system.cpu.itb.walker.walkRequestOrigin_Completed::Data            0                       # Table walker requests started/completed, data/inst
system.cpu.itb.walker.walkRequestOrigin_Completed::Inst            0                       # Table walker requests started/completed, data/inst
system.cpu.itb.walker.walkRequestOrigin_Completed::total            0                       # Table walker requests started/completed, data/inst
system.cpu.itb.walker.walkRequestOrigin::total            0                       # Table walker requests started/completed, data/inst
system.cpu.itb.walker.walks                         0                       # Table walker walks requested
system.cpu.itb.write_accesses                       0                       # DTB write accesses
system.cpu.itb.write_hits                           0                       # DTB write hits
system.cpu.itb.write_misses                         0                       # DTB write misses
system.cpu.memDep0.conflictingLoads             48580                       # Number of conflicting loads.
system.cpu.memDep0.conflictingStores            36320                       # Number of conflicting stores.
system.cpu.memDep0.insertedLoads              1716801                       # Number of loads inserted to the mem dependence unit.
system.cpu.memDep0.insertedStores             1814837                       # Number of stores inserted to the mem dependence unit.
system.cpu.misc_regfile_reads                 7816871                       # number of misc regfile reads
system.cpu.misc_regfile_writes                  48481                       # number of misc regfile writes
system.cpu.numCycles                         11802156                       # number of cpu cycles simulated
system.cpu.numWorkItemsCompleted                    0                       # number of work items this cpu completed
system.cpu.numWorkItemsStarted                      0                       # number of work items this cpu started
system.cpu.rename.BlockCycles                   79412                       # Number of cycles rename is blocking
system.cpu.rename.CommittedMaps              12114552                       # Number of HB maps that are committed
system.cpu.rename.IQFullEvents                     77                       # Number of times rename has blocked due to IQ full
system.cpu.rename.IdleCycles                  5625191                       # Number of cycles rename is idle
system.cpu.rename.LQFullEvents                     36                       # Number of times rename has blocked due to LQ full
system.cpu.rename.ROBFullEvents                     5                       # Number of times rename has blocked due to ROB full
system.cpu.rename.RenameLookups              18387938                       # Number of register rename lookups that rename has made
system.cpu.rename.RenamedInsts               11396499                       # Number of instructions processed by rename
system.cpu.rename.RenamedOperands            12153646                       # Number of destination operands rename has renamed
system.cpu.rename.RunCycles                   2192565                       # Number of cycles rename is running
system.cpu.rename.SQFullEvents                 913431                       # Number of times rename has blocked due to SQ full
system.cpu.rename.SquashCycles                   1358                       # Number of cycles rename is squashing
system.cpu.rename.UnblockCycles                961916                       # Number of cycles rename is unblocking
system.cpu.rename.UndoneMaps                    39067                       # Number of HB maps that are undone due to squashing
system.cpu.rename.int_rename_lookups         12979003                       # Number of integer rename lookups
system.cpu.rename.serializeStallCycles        1630581                       # count of cycles rename stalled for serializing inst
system.cpu.rename.serializingInsts              36801                       # count of serializing insts renamed
system.cpu.rename.skidInsts                    241759                       # count of insts added to the skid buffer
system.cpu.rename.tempSerializingInsts          12172                       # count of temporary serializing insts renamed
system.cpu.rename.vec_rename_lookups           242068                       # Number of vector rename lookups
system.cpu.rob.rob_reads                     21407264                       # The number of ROB reads
system.cpu.rob.rob_writes                    22782690                       # The number of ROB writes
system.cpu.timesIdled                          158001                       # Number of times that the entire CPU went into an idle state and unscheduled itself
system.cpu.vec_regfile_reads                   241453                       # number of vector regfile reads
system.cpu.vec_regfile_writes                   99969                       # number of vector regfile writes
system.cpu.workload.numSyscalls                    21                       # Number of system calls
system.membus.snoop_filter.hit_multi_requests            0                       # Number of requests hitting in the snoop filter with multiple (>1) holders of the requested data.
system.membus.snoop_filter.hit_multi_snoops            0                       # Number of snoops hitting in the snoop filter with multiple (>1) holders of the requested data.
system.membus.snoop_filter.hit_single_requests            0                       # Number of requests hitting in the snoop filter with a single holder of the requested data.
system.membus.snoop_filter.hit_single_snoops            0                       # Number of snoops hitting in the snoop filter with a single holder of the requested data.
system.membus.snoop_filter.tot_requests         38651                       # Total number of requests made to the snoop filter.
system.membus.snoop_filter.tot_snoops               0                       # Total number of snoops made to the snoop filter.
system.tol2bus.snoop_filter.hit_multi_requests          170                       # Number of requests hitting in the snoop filter with multiple (>1) holders of the requested data.
system.tol2bus.snoop_filter.hit_multi_snoops            0                       # Number of snoops hitting in the snoop filter with multiple (>1) holders of the requested data.
system.tol2bus.snoop_filter.hit_single_requests       853972                       # Number of requests hitting in the snoop filter with a single holder of the requested data.
system.tol2bus.snoop_filter.hit_single_snoops            0                       # Number of snoops hitting in the snoop filter with a single holder of the requested data.
system.tol2bus.snoop_filter.tot_requests      1709096                       # Total number of requests made to the snoop filter.
system.tol2bus.snoop_filter.tot_snoops              0                       # Total number of snoops made to the snoop filter.
system.membus.trans_dist::ReadResp               6241                       # Transaction distribution
system.membus.trans_dist::ReadExReq             32391                       # Transaction distribution
system.membus.trans_dist::ReadExResp            32391                       # Transaction distribution
system.membus.trans_dist::ReadSharedReq          6241                       # Transaction distribution
system.membus.trans_dist::InvalidateReq            19                       # Transaction distribution
system.membus.pkt_count_system.l2.mem_side::system.mem_ctrls.port        77283                       # Packet count per connected master and slave (bytes)
system.membus.pkt_count::total                  77283                       # Packet count per connected master and slave (bytes)
system.membus.pkt_size_system.l2.mem_side::system.mem_ctrls.port      2472448                       # Cumulative packet size per connected master and slave (bytes)
system.membus.pkt_size::total                 2472448                       # Cumulative packet size per connected master and slave (bytes)
system.membus.snoops                                0                       # Total snoops (count)
system.membus.snoopTraffic                          0                       # Total snoop traffic (bytes)
system.membus.snoop_fanout::samples             38651                       # Request fanout histogram
system.membus.snoop_fanout::mean                    0                       # Request fanout histogram
system.membus.snoop_fanout::stdev                   0                       # Request fanout histogram
system.membus.snoop_fanout::underflows              0      0.00%      0.00% # Request fanout histogram
system.membus.snoop_fanout::0                   38651    100.00%    100.00% # Request fanout histogram
system.membus.snoop_fanout::1                       0      0.00%    100.00% # Request fanout histogram
system.membus.snoop_fanout::overflows               0      0.00%    100.00% # Request fanout histogram
system.membus.snoop_fanout::min_value               0                       # Request fanout histogram
system.membus.snoop_fanout::max_value               0                       # Request fanout histogram
system.membus.snoop_fanout::total               38651                       # Request fanout histogram
system.membus.reqLayer0.occupancy            43064500                       # Layer occupancy (ticks)
system.membus.reqLayer0.utilization               0.7                       # Layer utilization (%)
system.membus.respLayer1.occupancy          198034750                       # Layer occupancy (ticks)
system.membus.respLayer1.utilization              3.4                       # Layer utilization (%)
system.membus.power_state.pwrStateResidencyTicks::UNDEFINED   5901077500                       # Cumulative time (in ticks) in various power states
system.tol2bus.trans_dist::ReadResp            822711                       # Transaction distribution
system.tol2bus.trans_dist::WritebackDirty        37016                       # Transaction distribution
system.tol2bus.trans_dist::WritebackClean       815642                       # Transaction distribution
system.tol2bus.trans_dist::CleanEvict            1314                       # Transaction distribution
system.tol2bus.trans_dist::ReadExReq            32394                       # Transaction distribution
system.tol2bus.trans_dist::ReadExResp           32394                       # Transaction distribution
system.tol2bus.trans_dist::ReadCleanReq        815770                       # Transaction distribution
system.tol2bus.trans_dist::ReadSharedReq         6941                       # Transaction distribution
system.tol2bus.trans_dist::InvalidateReq           19                       # Transaction distribution
system.tol2bus.trans_dist::InvalidateResp           19                       # Transaction distribution
system.tol2bus.pkt_count_system.cpu.icache.mem_side::system.l2.cpu_side      2447182                       # Packet count per connected master and slave (bytes)
system.tol2bus.pkt_count_system.cpu.dcache.mem_side::system.l2.cpu_side       117038                       # Packet count per connected master and slave (bytes)
system.tol2bus.pkt_count::total               2564220                       # Packet count per connected master and slave (bytes)
system.tol2bus.pkt_size_system.cpu.icache.mem_side::system.l2.cpu_side    104410368                       # Cumulative packet size per connected master and slave (bytes)
system.tol2bus.pkt_size_system.cpu.dcache.mem_side::system.l2.cpu_side      4886464                       # Cumulative packet size per connected master and slave (bytes)
system.tol2bus.pkt_size::total              109296832                       # Cumulative packet size per connected master and slave (bytes)
system.tol2bus.snoops                               0                       # Total snoops (count)
system.tol2bus.snoopTraffic                         0                       # Total snoop traffic (bytes)
system.tol2bus.snoop_fanout::samples           855124                       # Request fanout histogram
system.tol2bus.snoop_fanout::mean            0.000199                       # Request fanout histogram
system.tol2bus.snoop_fanout::stdev           0.014098                       # Request fanout histogram
system.tol2bus.snoop_fanout::underflows             0      0.00%      0.00% # Request fanout histogram
system.tol2bus.snoop_fanout::0                 854954     99.98%     99.98% # Request fanout histogram
system.tol2bus.snoop_fanout::1                    170      0.02%    100.00% # Request fanout histogram
system.tol2bus.snoop_fanout::2                      0      0.00%    100.00% # Request fanout histogram
system.tol2bus.snoop_fanout::overflows              0      0.00%    100.00% # Request fanout histogram
system.tol2bus.snoop_fanout::min_value              0                       # Request fanout histogram
system.tol2bus.snoop_fanout::max_value              1                       # Request fanout histogram
system.tol2bus.snoop_fanout::total             855124                       # Request fanout histogram
system.tol2bus.reqLayer0.occupancy         1751679696                       # Layer occupancy (ticks)
system.tol2bus.reqLayer0.utilization             29.7                       # Layer utilization (%)
system.tol2bus.respLayer1.occupancy          59020483                       # Layer occupancy (ticks)
system.tol2bus.respLayer1.utilization             1.0                       # Layer utilization (%)
system.tol2bus.respLayer0.occupancy        1223655000                       # Layer occupancy (ticks)
system.tol2bus.respLayer0.utilization            20.7                       # Layer utilization (%)
system.tol2bus.power_state.pwrStateResidencyTicks::UNDEFINED   5901077500                       # Cumulative time (in ticks) in various power states
system.voltage_domain.voltage                       1                       # Voltage in Volts
system.clk_domain.clock                          1000                       # Clock period in ticks
system.l2.demand_hits::.cpu.inst               175170                       # number of demand (read+write) hits
system.l2.demand_hits::.cpu.data                 1225                       # number of demand (read+write) hits
system.l2.demand_hits::.cpu.icache.prefetcher       640078                       # number of demand (read+write) hits
system.l2.demand_hits::total                   816473                       # number of demand (read+write) hits
system.l2.overall_hits::.cpu.inst              175170                       # number of overall hits
system.l2.overall_hits::.cpu.data                1225                       # number of overall hits
system.l2.overall_hits::.cpu.icache.prefetcher       640078                       # number of overall hits
system.l2.overall_hits::total                  816473                       # number of overall hits
system.l2.demand_misses::.cpu.inst                522                       # number of demand (read+write) misses
system.l2.demand_misses::.cpu.data              38110                       # number of demand (read+write) misses
system.l2.demand_misses::total                  38632                       # number of demand (read+write) misses
system.l2.overall_misses::.cpu.inst               522                       # number of overall misses
system.l2.overall_misses::.cpu.data             38110                       # number of overall misses
system.l2.overall_misses::total                 38632                       # number of overall misses
system.l2.demand_miss_latency::.cpu.inst     41253500                       # number of demand (read+write) miss cycles
system.l2.demand_miss_latency::.cpu.data   3723896000                       # number of demand (read+write) miss cycles
system.l2.demand_miss_latency::total       3765149500                       # number of demand (read+write) miss cycles
system.l2.overall_miss_latency::.cpu.inst     41253500                       # number of overall miss cycles
system.l2.overall_miss_latency::.cpu.data   3723896000                       # number of overall miss cycles
system.l2.overall_miss_latency::total      3765149500                       # number of overall miss cycles
system.l2.demand_accesses::.cpu.inst           175692                       # number of demand (read+write) accesses
system.l2.demand_accesses::.cpu.data            39335                       # number of demand (read+write) accesses
system.l2.demand_accesses::.cpu.icache.prefetcher       640078                       # number of demand (read+write) accesses
system.l2.demand_accesses::total               855105                       # number of demand (read+write) accesses
system.l2.overall_accesses::.cpu.inst          175692                       # number of overall (read+write) accesses
system.l2.overall_accesses::.cpu.data           39335                       # number of overall (read+write) accesses
system.l2.overall_accesses::.cpu.icache.prefetcher       640078                       # number of overall (read+write) accesses
system.l2.overall_accesses::total              855105                       # number of overall (read+write) accesses
system.l2.demand_miss_rate::.cpu.inst        0.002971                       # miss rate for demand accesses
system.l2.demand_miss_rate::.cpu.data        0.968857                       # miss rate for demand accesses
system.l2.demand_miss_rate::total            0.045178                       # miss rate for demand accesses
system.l2.overall_miss_rate::.cpu.inst       0.002971                       # miss rate for overall accesses
system.l2.overall_miss_rate::.cpu.data       0.968857                       # miss rate for overall accesses
system.l2.overall_miss_rate::total           0.045178                       # miss rate for overall accesses
system.l2.demand_avg_miss_latency::.cpu.inst 79029.693487                       # average overall miss latency
system.l2.demand_avg_miss_latency::.cpu.data 97714.405668                       # average overall miss latency
system.l2.demand_avg_miss_latency::total 97461.935701                       # average overall miss latency
system.l2.overall_avg_miss_latency::.cpu.inst 79029.693487                       # average overall miss latency
system.l2.overall_avg_miss_latency::.cpu.data 97714.405668                       # average overall miss latency
system.l2.overall_avg_miss_latency::total 97461.935701                       # average overall miss latency
system.l2.blocked_cycles::no_mshrs                  0                       # number of cycles access was blocked
system.l2.blocked_cycles::no_targets                0                       # number of cycles access was blocked
system.l2.blocked::no_mshrs                         0                       # number of cycles access was blocked
system.l2.blocked::no_targets                       0                       # number of cycles access was blocked
system.l2.avg_blocked_cycles::no_mshrs            nan                       # average number of cycles each access was blocked
system.l2.avg_blocked_cycles::no_targets          nan                       # average number of cycles each access was blocked
system.l2.demand_mshr_misses::.cpu.inst           522                       # number of demand (read+write) MSHR misses
system.l2.demand_mshr_misses::.cpu.data         38110                       # number of demand (read+write) MSHR misses
system.l2.demand_mshr_misses::total             38632                       # number of demand (read+write) MSHR misses
system.l2.overall_mshr_misses::.cpu.inst          522                       # number of overall MSHR misses
system.l2.overall_mshr_misses::.cpu.data        38110                       # number of overall MSHR misses
system.l2.overall_mshr_misses::total            38632                       # number of overall MSHR misses
system.l2.demand_mshr_miss_latency::.cpu.inst     36033500                       # number of demand (read+write) MSHR miss cycles
system.l2.demand_mshr_miss_latency::.cpu.data   3342796000                       # number of demand (read+write) MSHR miss cycles
system.l2.demand_mshr_miss_latency::total   3378829500                       # number of demand (read+write) MSHR miss cycles
system.l2.overall_mshr_miss_latency::.cpu.inst     36033500                       # number of overall MSHR miss cycles
system.l2.overall_mshr_miss_latency::.cpu.data   3342796000                       # number of overall MSHR miss cycles
system.l2.overall_mshr_miss_latency::total   3378829500                       # number of overall MSHR miss cycles
system.l2.demand_mshr_miss_rate::.cpu.inst     0.002971                       # mshr miss rate for demand accesses
system.l2.demand_mshr_miss_rate::.cpu.data     0.968857                       # mshr miss rate for demand accesses
system.l2.demand_mshr_miss_rate::total       0.045178                       # mshr miss rate for demand accesses
system.l2.overall_mshr_miss_rate::.cpu.inst     0.002971                       # mshr miss rate for overall accesses
system.l2.overall_mshr_miss_rate::.cpu.data     0.968857                       # mshr miss rate for overall accesses
system.l2.overall_mshr_miss_rate::total      0.045178                       # mshr miss rate for overall accesses
system.l2.demand_avg_mshr_miss_latency::.cpu.inst 69029.693487                       # average overall mshr miss latency
system.l2.demand_avg_mshr_miss_latency::.cpu.data 87714.405668                       # average overall mshr miss latency
system.l2.demand_avg_mshr_miss_latency::total 87461.935701                       # average overall mshr miss latency
system.l2.overall_avg_mshr_miss_latency::.cpu.inst 69029.693487                       # average overall mshr miss latency
system.l2.overall_avg_mshr_miss_latency::.cpu.data 87714.405668                       # average overall mshr miss latency
system.l2.overall_avg_mshr_miss_latency::total 87461.935701                       # average overall mshr miss latency
system.l2.replacements                              0                       # number of replacements
system.l2.WritebackDirty_hits::.writebacks        37016                       # number of WritebackDirty hits
system.l2.WritebackDirty_hits::total            37016                       # number of WritebackDirty hits
system.l2.WritebackDirty_accesses::.writebacks        37016                       # number of WritebackDirty accesses(hits+misses)
system.l2.WritebackDirty_accesses::total        37016                       # number of WritebackDirty accesses(hits+misses)
system.l2.WritebackClean_hits::.writebacks       815472                       # number of WritebackClean hits
system.l2.WritebackClean_hits::total           815472                       # number of WritebackClean hits
system.l2.WritebackClean_accesses::.writebacks       815472                       # number of WritebackClean accesses(hits+misses)
system.l2.WritebackClean_accesses::total       815472                       # number of WritebackClean accesses(hits+misses)
system.l2.ReadExReq_hits::.cpu.data                 3                       # number of ReadExReq hits
system.l2.ReadExReq_hits::total                     3                       # number of ReadExReq hits
system.l2.ReadExReq_misses::.cpu.data           32391                       # number of ReadExReq misses
system.l2.ReadExReq_misses::total               32391                       # number of ReadExReq misses
system.l2.ReadExReq_miss_latency::.cpu.data   3092495000                       # number of ReadExReq miss cycles
system.l2.ReadExReq_miss_latency::total    3092495000                       # number of ReadExReq miss cycles
system.l2.ReadExReq_accesses::.cpu.data         32394                       # number of ReadExReq accesses(hits+misses)
system.l2.ReadExReq_accesses::total             32394                       # number of ReadExReq accesses(hits+misses)
system.l2.ReadExReq_miss_rate::.cpu.data     0.999907                       # miss rate for ReadExReq accesses
system.l2.ReadExReq_miss_rate::total         0.999907                       # miss rate for ReadExReq accesses
system.l2.ReadExReq_avg_miss_latency::.cpu.data 95473.897070                       # average ReadExReq miss latency
system.l2.ReadExReq_avg_miss_latency::total 95473.897070                       # average ReadExReq miss latency
system.l2.ReadExReq_mshr_misses::.cpu.data        32391                       # number of ReadExReq MSHR misses
system.l2.ReadExReq_mshr_misses::total          32391                       # number of ReadExReq MSHR misses
system.l2.ReadExReq_mshr_miss_latency::.cpu.data   2768585000                       # number of ReadExReq MSHR miss cycles
system.l2.ReadExReq_mshr_miss_latency::total   2768585000                       # number of ReadExReq MSHR miss cycles
system.l2.ReadExReq_mshr_miss_rate::.cpu.data     0.999907                       # mshr miss rate for ReadExReq accesses
system.l2.ReadExReq_mshr_miss_rate::total     0.999907                       # mshr miss rate for ReadExReq accesses
system.l2.ReadExReq_avg_mshr_miss_latency::.cpu.data 85473.897070                       # average ReadExReq mshr miss latency
system.l2.ReadExReq_avg_mshr_miss_latency::total 85473.897070                       # average ReadExReq mshr miss latency
system.l2.ReadCleanReq_hits::.cpu.inst         175170                       # number of ReadCleanReq hits
system.l2.ReadCleanReq_hits::.cpu.icache.prefetcher       640078                       # number of ReadCleanReq hits
system.l2.ReadCleanReq_hits::total             815248                       # number of ReadCleanReq hits
system.l2.ReadCleanReq_misses::.cpu.inst          522                       # number of ReadCleanReq misses
system.l2.ReadCleanReq_misses::total              522                       # number of ReadCleanReq misses
system.l2.ReadCleanReq_miss_latency::.cpu.inst     41253500                       # number of ReadCleanReq miss cycles
system.l2.ReadCleanReq_miss_latency::total     41253500                       # number of ReadCleanReq miss cycles
system.l2.ReadCleanReq_accesses::.cpu.inst       175692                       # number of ReadCleanReq accesses(hits+misses)
system.l2.ReadCleanReq_accesses::.cpu.icache.prefetcher       640078                       # number of ReadCleanReq accesses(hits+misses)
system.l2.ReadCleanReq_accesses::total         815770                       # number of ReadCleanReq accesses(hits+misses)
system.l2.ReadCleanReq_miss_rate::.cpu.inst     0.002971                       # miss rate for ReadCleanReq accesses
system.l2.ReadCleanReq_miss_rate::total      0.000640                       # miss rate for ReadCleanReq accesses
[...]
system.cpu.dcache.demand_accesses::.cpu.data      3418093                       # number of demand (read+write) accesses
system.cpu.dcache.demand_accesses::total      3418093                       # number of demand (read+write) accesses
system.cpu.dcache.overall_accesses::.cpu.data      3424910                       # number of overall (read+write) accesses
system.cpu.dcache.overall_accesses::total      3424910                       # number of overall (read+write) accesses
system.cpu.dcache.demand_miss_rate::.cpu.data     0.026895                       # miss rate for demand accesses
system.cpu.dcache.demand_miss_rate::total     0.026895                       # miss rate for demand accesses
system.cpu.dcache.overall_miss_rate::.cpu.data     0.026866                       # miss rate for overall accesses
system.cpu.dcache.overall_miss_rate::total     0.026866                       # miss rate for overall accesses
system.cpu.dcache.demand_avg_miss_latency::.cpu.data 98633.668375                       # average overall miss latency
system.cpu.dcache.demand_avg_miss_latency::total 98633.668375                       # average overall miss latency
system.cpu.dcache.overall_avg_miss_latency::.cpu.data 98542.553307                       # average overall miss latency
system.cpu.dcache.overall_avg_miss_latency::total 98542.553307                       # average overall miss latency
system.cpu.dcache.blocked_cycles::no_mshrs            0                       # number of cycles access was blocked
system.cpu.dcache.blocked_cycles::no_targets            0                       # number of cycles access was blocked
system.cpu.dcache.blocked::no_mshrs                 0                       # number of cycles access was blocked
system.cpu.dcache.blocked::no_targets               0                       # number of cycles access was blocked
system.cpu.dcache.avg_blocked_cycles::no_mshrs          nan                       # average number of cycles each access was blocked
system.cpu.dcache.avg_blocked_cycles::no_targets          nan                       # average number of cycles each access was blocked
system.cpu.dcache.writebacks::.writebacks        37016                       # number of writebacks
system.cpu.dcache.writebacks::total             37016                       # number of writebacks
system.cpu.dcache.demand_mshr_hits::.cpu.data        52578                       # number of demand (read+write) MSHR hits
system.cpu.dcache.demand_mshr_hits::total        52578                       # number of demand (read+write) MSHR hits
system.cpu.dcache.overall_mshr_hits::.cpu.data        52578                       # number of overall MSHR hits
system.cpu.dcache.overall_mshr_hits::total        52578                       # number of overall MSHR hits
system.cpu.dcache.demand_mshr_misses::.cpu.data        39351                       # number of demand (read+write) MSHR misses
system.cpu.dcache.demand_mshr_misses::total        39351                       # number of demand (read+write) MSHR misses
system.cpu.dcache.overall_mshr_misses::.cpu.data        39353                       # number of overall MSHR misses
system.cpu.dcache.overall_mshr_misses::total        39353                       # number of overall MSHR misses
system.cpu.dcache.demand_mshr_miss_latency::.cpu.data   3815847000                       # number of demand (read+write) MSHR miss cycles
system.cpu.dcache.demand_mshr_miss_latency::total   3815847000                       # number of demand (read+write) MSHR miss cycles
system.cpu.dcache.overall_mshr_miss_latency::.cpu.data   3816031500                       # number of overall MSHR miss cycles
system.cpu.dcache.overall_mshr_miss_latency::total   3816031500                       # number of overall MSHR miss cycles
system.cpu.dcache.demand_mshr_miss_rate::.cpu.data     0.011513                       # mshr miss rate for demand accesses
system.cpu.dcache.demand_mshr_miss_rate::total     0.011513                       # mshr miss rate for demand accesses
system.cpu.dcache.overall_mshr_miss_rate::.cpu.data     0.011490                       # mshr miss rate for overall accesses
system.cpu.dcache.overall_mshr_miss_rate::total     0.011490                       # mshr miss rate for overall accesses
system.cpu.dcache.demand_avg_mshr_miss_latency::.cpu.data 96969.505222                       # average overall mshr miss latency
system.cpu.dcache.demand_avg_mshr_miss_latency::total 96969.505222                       # average overall mshr miss latency
system.cpu.dcache.overall_avg_mshr_miss_latency::.cpu.data 96969.265367                       # average overall mshr miss latency
system.cpu.dcache.overall_avg_mshr_miss_latency::total 96969.265367                       # average overall mshr miss latency
system.cpu.dcache.replacements                  38330                       # number of replacements
system.cpu.dcache.ReadReq_hits::.cpu.data      1605238                       # number of ReadReq hits
system.cpu.dcache.ReadReq_hits::total         1605238                       # number of ReadReq hits
system.cpu.dcache.ReadReq_misses::.cpu.data        27699                       # number of ReadReq misses
system.cpu.dcache.ReadReq_misses::total         27699                       # number of ReadReq misses
system.cpu.dcache.ReadReq_miss_latency::.cpu.data   2722966500                       # number of ReadReq miss cycles
system.cpu.dcache.ReadReq_miss_latency::total   2722966500                       # number of ReadReq miss cycles
system.cpu.dcache.ReadReq_accesses::.cpu.data      1632937                       # number of ReadReq accesses(hits+misses)
system.cpu.dcache.ReadReq_accesses::total      1632937                       # number of ReadReq accesses(hits+misses)
system.cpu.dcache.ReadReq_miss_rate::.cpu.data     0.016963                       # miss rate for ReadReq accesses
system.cpu.dcache.ReadReq_miss_rate::total     0.016963                       # miss rate for ReadReq accesses
system.cpu.dcache.ReadReq_avg_miss_latency::.cpu.data 98305.588649                       # average ReadReq miss latency
system.cpu.dcache.ReadReq_avg_miss_latency::total 98305.588649                       # average ReadReq miss latency
system.cpu.dcache.ReadReq_mshr_hits::.cpu.data        17101                       # number of ReadReq MSHR hits
system.cpu.dcache.ReadReq_mshr_hits::total        17101                       # number of ReadReq MSHR hits
system.cpu.dcache.ReadReq_mshr_misses::.cpu.data        10598                       # number of ReadReq MSHR misses
system.cpu.dcache.ReadReq_mshr_misses::total        10598                       # number of ReadReq MSHR misses
system.cpu.dcache.ReadReq_mshr_miss_latency::.cpu.data   1123571000                       # number of ReadReq MSHR miss cycles
system.cpu.dcache.ReadReq_mshr_miss_latency::total   1123571000                       # number of ReadReq MSHR miss cycles
system.cpu.dcache.ReadReq_mshr_miss_rate::.cpu.data     0.006490                       # mshr miss rate for ReadReq accesses
system.cpu.dcache.ReadReq_mshr_miss_rate::total     0.006490                       # mshr miss rate for ReadReq accesses
system.cpu.dcache.ReadReq_avg_mshr_miss_latency::.cpu.data 106017.267409                       # average ReadReq mshr miss latency
system.cpu.dcache.ReadReq_avg_mshr_miss_latency::total 106017.267409                       # average ReadReq mshr miss latency
system.cpu.dcache.WriteReq_hits::.cpu.data      1720926                       # number of WriteReq hits
system.cpu.dcache.WriteReq_hits::total        1720926                       # number of WriteReq hits
system.cpu.dcache.WriteReq_misses::.cpu.data        64217                       # number of WriteReq misses
system.cpu.dcache.WriteReq_misses::total        64217                       # number of WriteReq misses
system.cpu.dcache.WriteReq_miss_latency::.cpu.data   6343917500                       # number of WriteReq miss cycles
system.cpu.dcache.WriteReq_miss_latency::total   6343917500                       # number of WriteReq miss cycles
system.cpu.dcache.WriteReq_accesses::.cpu.data      1785143                       # number of WriteReq accesses(hits+misses)
system.cpu.dcache.WriteReq_accesses::total      1785143                       # number of WriteReq accesses(hits+misses)
system.cpu.dcache.WriteReq_miss_rate::.cpu.data     0.035973                       # miss rate for WriteReq accesses
system.cpu.dcache.WriteReq_miss_rate::total     0.035973                       # miss rate for WriteReq accesses
system.cpu.dcache.WriteReq_avg_miss_latency::.cpu.data 98788.755314                       # average WriteReq miss latency
system.cpu.dcache.WriteReq_avg_miss_latency::total 98788.755314                       # average WriteReq miss latency
system.cpu.dcache.WriteReq_mshr_hits::.cpu.data        35477                       # number of WriteReq MSHR hits
system.cpu.dcache.WriteReq_mshr_hits::total        35477                       # number of WriteReq MSHR hits
system.cpu.dcache.WriteReq_mshr_misses::.cpu.data        28740                       # number of WriteReq MSHR misses
system.cpu.dcache.WriteReq_mshr_misses::total        28740                       # number of WriteReq MSHR misses
system.cpu.dcache.WriteReq_mshr_miss_latency::.cpu.data   2691878500                       # number of WriteReq MSHR miss cycles
system.cpu.dcache.WriteReq_mshr_miss_latency::total   2691878500                       # number of WriteReq MSHR miss cycles
system.cpu.dcache.WriteReq_mshr_miss_rate::.cpu.data     0.016100                       # mshr miss rate for WriteReq accesses
system.cpu.dcache.WriteReq_mshr_miss_rate::total     0.016100                       # mshr miss rate for WriteReq accesses
system.cpu.dcache.WriteReq_avg_mshr_miss_latency::.cpu.data 93663.135003                       # average WriteReq mshr miss latency
system.cpu.dcache.WriteReq_avg_mshr_miss_latency::total 93663.135003                       # average WriteReq mshr miss latency
system.cpu.dcache.SoftPFReq_hits::.cpu.data         6732                       # number of SoftPFReq hits
system.cpu.dcache.SoftPFReq_hits::total          6732                       # number of SoftPFReq hits
system.cpu.dcache.SoftPFReq_misses::.cpu.data           85                       # number of SoftPFReq misses
system.cpu.dcache.SoftPFReq_misses::total           85                       # number of SoftPFReq misses
system.cpu.dcache.SoftPFReq_accesses::.cpu.data         6817                       # number of SoftPFReq accesses(hits+misses)
system.cpu.dcache.SoftPFReq_accesses::total         6817                       # number of SoftPFReq accesses(hits+misses)
system.cpu.dcache.SoftPFReq_miss_rate::.cpu.data     0.012469                       # miss rate for SoftPFReq accesses
system.cpu.dcache.SoftPFReq_miss_rate::total     0.012469                       # miss rate for SoftPFReq accesses
system.cpu.dcache.SoftPFReq_mshr_misses::.cpu.data            2                       # number of SoftPFReq MSHR misses
system.cpu.dcache.SoftPFReq_mshr_misses::total            2                       # number of SoftPFReq MSHR misses
system.cpu.dcache.SoftPFReq_mshr_miss_latency::.cpu.data       184500                       # number of SoftPFReq MSHR miss cycles
system.cpu.dcache.SoftPFReq_mshr_miss_latency::total       184500                       # number of SoftPFReq MSHR miss cycles
system.cpu.dcache.SoftPFReq_mshr_miss_rate::.cpu.data     0.000293                       # mshr miss rate for SoftPFReq accesses
system.cpu.dcache.SoftPFReq_mshr_miss_rate::total     0.000293                       # mshr miss rate for SoftPFReq accesses
system.cpu.dcache.SoftPFReq_avg_mshr_miss_latency::.cpu.data        92250                       # average SoftPFReq mshr miss latency
system.cpu.dcache.SoftPFReq_avg_mshr_miss_latency::total        92250                       # average SoftPFReq mshr miss latency
system.cpu.dcache.WriteLineReq_misses::.cpu.data           13                       # number of WriteLineReq misses
system.cpu.dcache.WriteLineReq_misses::total           13                       # number of WriteLineReq misses
system.cpu.dcache.WriteLineReq_miss_latency::.cpu.data       410500                       # number of WriteLineReq miss cycles
system.cpu.dcache.WriteLineReq_miss_latency::total       410500                       # number of WriteLineReq miss cycles
system.cpu.dcache.WriteLineReq_accesses::.cpu.data           13                       # number of WriteLineReq accesses(hits+misses)
system.cpu.dcache.WriteLineReq_accesses::total           13                       # number of WriteLineReq accesses(hits+misses)
system.cpu.dcache.WriteLineReq_miss_rate::.cpu.data            1                       # miss rate for WriteLineReq accesses
system.cpu.dcache.WriteLineReq_miss_rate::total            1                       # miss rate for WriteLineReq accesses
system.cpu.dcache.WriteLineReq_avg_miss_latency::.cpu.data 31576.923077                       # average WriteLineReq miss latency
system.cpu.dcache.WriteLineReq_avg_miss_latency::total 31576.923077                       # average WriteLineReq miss latency
system.cpu.dcache.WriteLineReq_mshr_misses::.cpu.data           13                       # number of WriteLineReq MSHR misses
system.cpu.dcache.WriteLineReq_mshr_misses::total           13                       # number of WriteLineReq MSHR misses
system.cpu.dcache.WriteLineReq_mshr_miss_latency::.cpu.data       397500                       # number of WriteLineReq MSHR miss cycles
system.cpu.dcache.WriteLineReq_mshr_miss_latency::total       397500                       # number of WriteLineReq MSHR miss cycles
system.cpu.dcache.WriteLineReq_mshr_miss_rate::.cpu.data            1                       # mshr miss rate for WriteLineReq accesses
system.cpu.dcache.WriteLineReq_mshr_miss_rate::total            1                       # mshr miss rate for WriteLineReq accesses
system.cpu.dcache.WriteLineReq_avg_mshr_miss_latency::.cpu.data 30576.923077                       # average WriteLineReq mshr miss latency
system.cpu.dcache.WriteLineReq_avg_mshr_miss_latency::total 30576.923077                       # average WriteLineReq mshr miss latency
system.cpu.dcache.LoadLockedReq_hits::.cpu.data        12135                       # number of LoadLockedReq hits
system.cpu.dcache.LoadLockedReq_hits::total        12135                       # number of LoadLockedReq hits
system.cpu.dcache.LoadLockedReq_misses::.cpu.data            2                       # number of LoadLockedReq misses
system.cpu.dcache.LoadLockedReq_misses::total            2                       # number of LoadLockedReq misses
system.cpu.dcache.LoadLockedReq_miss_latency::.cpu.data       419500                       # number of LoadLockedReq miss cycles
system.cpu.dcache.LoadLockedReq_miss_latency::total       419500                       # number of LoadLockedReq miss cycles
system.cpu.dcache.LoadLockedReq_accesses::.cpu.data        12137                       # number of LoadLockedReq accesses(hits+misses)
system.cpu.dcache.LoadLockedReq_accesses::total        12137                       # number of LoadLockedReq accesses(hits+misses)
system.cpu.dcache.LoadLockedReq_miss_rate::.cpu.data     0.000165                       # miss rate for LoadLockedReq accesses
system.cpu.dcache.LoadLockedReq_miss_rate::total     0.000165                       # miss rate for LoadLockedReq accesses
system.cpu.dcache.LoadLockedReq_avg_miss_latency::.cpu.data       209750                       # average LoadLockedReq miss latency
system.cpu.dcache.LoadLockedReq_avg_miss_latency::total       209750                       # average LoadLockedReq miss latency
system.cpu.dcache.LoadLockedReq_mshr_hits::.cpu.data            1                       # number of LoadLockedReq MSHR hits
system.cpu.dcache.LoadLockedReq_mshr_hits::total            1                       # number of LoadLockedReq MSHR hits
system.cpu.dcache.LoadLockedReq_mshr_misses::.cpu.data            1                       # number of LoadLockedReq MSHR misses
system.cpu.dcache.LoadLockedReq_mshr_misses::total            1                       # number of LoadLockedReq MSHR misses
system.cpu.dcache.LoadLockedReq_mshr_miss_latency::.cpu.data       346000                       # number of LoadLockedReq MSHR miss cycles
system.cpu.dcache.LoadLockedReq_mshr_miss_latency::total       346000                       # number of LoadLockedReq MSHR miss cycles
system.cpu.dcache.LoadLockedReq_mshr_miss_rate::.cpu.data     0.000082                       # mshr miss rate for LoadLockedReq accesses
system.cpu.dcache.LoadLockedReq_mshr_miss_rate::total     0.000082                       # mshr miss rate for LoadLockedReq accesses
system.cpu.dcache.LoadLockedReq_avg_mshr_miss_latency::.cpu.data       346000                       # average LoadLockedReq mshr miss latency
system.cpu.dcache.LoadLockedReq_avg_mshr_miss_latency::total       346000                       # average LoadLockedReq mshr miss latency
system.cpu.dcache.StoreCondReq_hits::.cpu.data        12120                       # number of StoreCondReq hits
system.cpu.dcache.StoreCondReq_hits::total        12120                       # number of StoreCondReq hits
system.cpu.dcache.StoreCondReq_accesses::.cpu.data        12120                       # number of StoreCondReq accesses(hits+misses)
system.cpu.dcache.StoreCondReq_accesses::total        12120                       # number of StoreCondReq accesses(hits+misses)
system.cpu.dcache.power_state.pwrStateResidencyTicks::UNDEFINED   5901077500                       # Cumulative time (in ticks) in various power states
system.cpu.dcache.tags.tagsinuse          1009.429518                       # Cycle average of tags in use
system.cpu.dcache.tags.total_refs             3396505                       # Total number of references to valid blocks.
system.cpu.dcache.tags.sampled_refs             39354                       # Sample count of references to valid blocks.
system.cpu.dcache.tags.avg_refs             86.306475                       # Average number of references to valid blocks.
system.cpu.dcache.tags.warmup_cycle            176500                       # Cycle when the warmup percentage was hit.
system.cpu.dcache.tags.occ_blocks::.cpu.data  1009.429518                       # Average occupied blocks per requestor
system.cpu.dcache.tags.occ_percent::.cpu.data     0.985771                       # Average percentage of cache occupancy
system.cpu.dcache.tags.occ_percent::total     0.985771                       # Average percentage of cache occupancy
system.cpu.dcache.tags.occ_task_id_blocks::1024         1024                       # Occupied blocks per task id
system.cpu.dcache.tags.age_task_id_blocks_1024::0           63                       # Occupied blocks per task id
system.cpu.dcache.tags.age_task_id_blocks_1024::1          576                       # Occupied blocks per task id
system.cpu.dcache.tags.age_task_id_blocks_1024::2          344                       # Occupied blocks per task id
system.cpu.dcache.tags.age_task_id_blocks_1024::3           41                       # Occupied blocks per task id
system.cpu.dcache.tags.occ_task_id_percent::1024            1                       # Percentage of cache occupancy per task id
system.cpu.dcache.tags.tag_accesses           6937688                       # Number of tag accesses
system.cpu.dcache.tags.data_accesses          6937688                       # Number of data accesses
system.cpu.dcache.tags.power_state.pwrStateResidencyTicks::UNDEFINED   5901077500                       # Cumulative time (in ticks) in various power states
system.cpu.power_state.pwrStateResidencyTicks::ON   5901077500                       # Cumulative time (in ticks) in various power states

---------- End Simulation Statistics   ----------
