
---------- Begin Simulation Statistics ----------
final_tick                                  981819500                       # Number of ticks from beginning of simulation (restored from checkpoints and never reset)
host_inst_rate                                 116823                       # Simulator instruction rate (inst/s)
host_mem_usage                                 865632                       # Number of bytes of host memory used
host_op_rate                                   117632                       # Simulator op (including micro ops) rate (op/s)
host_seconds                                     8.56                       # Real time elapsed on the host
host_tick_rate                              114697026                       # Simulator tick rate (ticks/s)
sim_freq                                 1000000000000                       # Frequency of simulated ticks
sim_insts                                     1000001                       # Number of instructions simulated
sim_ops                                       1006944                       # Number of ops (including micro ops) simulated
sim_seconds                                  0.000982                       # Number of seconds simulated
sim_ticks                                   981819500                       # Number of ticks simulated
system.cpu.branchPred.BTBCorrect                    0                       # Number of correct BTB predictions (this stat may not work properly.
system.cpu.branchPred.BTBHitPct             99.622454                       # BTB Hit Percentage
system.cpu.branchPred.BTBHits                  200540                       # Number of BTB hits
system.cpu.branchPred.BTBLookups               201300                       # Number of BTB lookups
system.cpu.branchPred.RASInCorrect                  0                       # Number of incorrect RAS predictions.
system.cpu.branchPred.condIncorrect               910                       # Number of conditional branches incorrect
system.cpu.branchPred.condPredicted            202533                       # Number of conditional branches predicted
system.cpu.branchPred.indirectHits                  1                       # Number of indirect target hits.
system.cpu.branchPred.indirectLookups             175                       # Number of indirect predictor lookups.
system.cpu.branchPred.indirectMisses              174                       # Number of indirect misses.
system.cpu.branchPred.lookups                  208278                       # Number of BP lookups
system.cpu.branchPred.usedRAS                    2379                       # Number of times the RAS was used to get a target.
system.cpu.branchPredindirectMispredicted           43                       # Number of mispredicted indirect branches.
system.cpu.cc_regfile_reads                    763701                       # number of cc regfile reads
system.cpu.cc_regfile_writes                   764232                       # number of cc regfile writes
system.cpu.commit.amos                              0                       # Number of atomic instructions committed
system.cpu.commit.branchMispredicts               712                       # The number of times a branch was mispredicted
system.cpu.commit.branches                     134686                       # Number of branches committed
system.cpu.commit.bw_lim_events                 48881                       # number cycles where commit BW limit reached
system.cpu.commit.commitNonSpecStalls              31                       # The number of times commit has been forced to stall to communicate backwards
system.cpu.commit.commitSquashedInsts          202926                       # The number of squashed insts skipped by commit
system.cpu.commit.committedInsts              1000027                       # Number of instructions committed
system.cpu.commit.committedOps                1006970                       # Number of ops (including micro ops) committed
system.cpu.commit.committed_per_cycle::samples      1903461                       # Number of insts commited each cycle
system.cpu.commit.committed_per_cycle::mean     0.529021                       # Number of insts commited each cycle
system.cpu.commit.committed_per_cycle::stdev     1.578893                       # Number of insts commited each cycle
system.cpu.commit.committed_per_cycle::underflows            0      0.00%      0.00% # Number of insts commited each cycle
system.cpu.commit.committed_per_cycle::0      1623993     85.32%     85.32% # Number of insts commited each cycle
system.cpu.commit.committed_per_cycle::1        86163      4.53%     89.84% # Number of insts commited each cycle
system.cpu.commit.committed_per_cycle::2        12731      0.67%     90.51% # Number of insts commited each cycle
system.cpu.commit.committed_per_cycle::3        49491      2.60%     93.11% # Number of insts commited each cycle
system.cpu.commit.committed_per_cycle::4        58424      3.07%     96.18% # Number of insts commited each cycle
system.cpu.commit.committed_per_cycle::5        21595      1.13%     97.32% # Number of insts commited each cycle
system.cpu.commit.committed_per_cycle::6         1128      0.06%     97.38% # Number of insts commited each cycle
system.cpu.commit.committed_per_cycle::7         1055      0.06%     97.43% # Number of insts commited each cycle
system.cpu.commit.committed_per_cycle::8        48881      2.57%    100.00% # Number of insts commited each cycle
system.cpu.commit.committed_per_cycle::overflows            0      0.00%    100.00% # Number of insts commited each cycle
system.cpu.commit.committed_per_cycle::min_value            0                       # Number of insts commited each cycle
system.cpu.commit.committed_per_cycle::max_value            8                       # Number of insts commited each cycle
system.cpu.commit.committed_per_cycle::total      1903461                       # Number of insts commited each cycle
system.cpu.commit.fp_insts                          0                       # Number of committed floating point instructions.
system.cpu.commit.function_calls                 2158                       # Number of function calls committed.
system.cpu.commit.int_insts                    879162                       # Number of committed integer instructions.
system.cpu.commit.loads                        161698                       # Number of loads committed
system.cpu.commit.membars                          20                       # Number of memory barriers committed
system.cpu.commit.op_class_0::No_OpClass            5      0.00%      0.00% # Class of committed instruction
system.cpu.commit.op_class_0::IntAlu           625681     62.14%     62.14% # Class of committed instruction
system.cpu.commit.op_class_0::IntMult             633      0.06%     62.20% # Class of committed instruction
system.cpu.commit.op_class_0::IntDiv                2      0.00%     62.20% # Class of committed instruction
system.cpu.commit.op_class_0::FloatAdd              0      0.00%     62.20% # Class of committed instruction
system.cpu.commit.op_class_0::FloatCmp              0      0.00%     62.20% # Class of committed instruction
system.cpu.commit.op_class_0::FloatCvt              0      0.00%     62.20% # Class of committed instruction
system.cpu.commit.op_class_0::FloatMult             0      0.00%     62.20% # Class of committed instruction
system.cpu.commit.op_class_0::FloatMultAcc            0      0.00%     62.20% # Class of committed instruction
system.cpu.commit.op_class_0::FloatDiv              0      0.00%     62.20% # Class of committed instruction
system.cpu.commit.op_class_0::FloatMisc             1      0.00%     62.20% # Class of committed instruction
system.cpu.commit.op_class_0::FloatSqrt             0      0.00%     62.20% # Class of committed instruction
system.cpu.commit.op_class_0::SimdAdd              20      0.00%     62.20% # Class of committed instruction
system.cpu.commit.op_class_0::SimdAddAcc            0      0.00%     62.20% # Class of committed instruction
system.cpu.commit.op_class_0::SimdAlu              19      0.00%     62.20% # Class of committed instruction
system.cpu.commit.op_class_0::SimdCmp              20      0.00%     62.20% # Class of committed instruction
system.cpu.commit.op_class_0::SimdCvt               0      0.00%     62.20% # Class of committed instruction
system.cpu.commit.op_class_0::SimdMisc             23      0.00%     62.21% # Class of committed instruction
system.cpu.commit.op_class_0::SimdMult              0      0.00%     62.21% # Class of committed instruction
system.cpu.commit.op_class_0::SimdMultAcc            0      0.00%     62.21% # Class of committed instruction
system.cpu.commit.op_class_0::SimdShift             0      0.00%     62.21% # Class of committed instruction
system.cpu.commit.op_class_0::SimdShiftAcc            0      0.00%     62.21% # Class of committed instruction
system.cpu.commit.op_class_0::SimdDiv               0      0.00%     62.21% # Class of committed instruction
system.cpu.commit.op_class_0::SimdSqrt              0      0.00%     62.21% # Class of committed instruction
system.cpu.commit.op_class_0::SimdFloatAdd            0      0.00%     62.21% # Class of committed instruction
system.cpu.commit.op_class_0::SimdFloatAlu            0      0.00%     62.21% # Class of committed instruction
system.cpu.commit.op_class_0::SimdFloatCmp            0      0.00%     62.21% # Class of committed instruction
system.cpu.commit.op_class_0::SimdFloatCvt            0      0.00%     62.21% # Class of committed instruction
system.cpu.commit.op_class_0::SimdFloatDiv            0      0.00%     62.21% # Class of committed instruction
system.cpu.commit.op_class_0::SimdFloatMisc            0      0.00%     62.21% # Class of committed instruction
system.cpu.commit.op_class_0::SimdFloatMult            0      0.00%     62.21% # Class of committed instruction
system.cpu.commit.op_class_0::SimdFloatMultAcc            0      0.00%     62.21% # Class of committed instruction
system.cpu.commit.op_class_0::SimdFloatSqrt            0      0.00%     62.21% # Class of committed instruction
system.cpu.commit.op_class_0::SimdReduceAdd            0      0.00%     62.21% # Class of committed instruction
system.cpu.commit.op_class_0::SimdReduceAlu            0      0.00%     62.21% # Class of committed instruction
system.cpu.commit.op_class_0::SimdReduceCmp            0      0.00%     62.21% # Class of committed instruction
system.cpu.commit.op_class_0::SimdFloatReduceAdd            0      0.00%     62.21% # Class of committed instruction
system.cpu.commit.op_class_0::SimdFloatReduceCmp            0      0.00%     62.21% # Class of committed instruction
system.cpu.commit.op_class_0::SimdAes               0      0.00%     62.21% # Class of committed instruction
system.cpu.commit.op_class_0::SimdAesMix            0      0.00%     62.21% # Class of committed instruction
system.cpu.commit.op_class_0::SimdSha1Hash            0      0.00%     62.21% # Class of committed instruction
system.cpu.commit.op_class_0::SimdSha1Hash2            0      0.00%     62.21% # Class of committed instruction
system.cpu.commit.op_class_0::SimdSha256Hash            0      0.00%     62.21% # Class of committed instruction
system.cpu.commit.op_class_0::SimdSha256Hash2            0      0.00%     62.21% # Class of committed instruction
system.cpu.commit.op_class_0::SimdShaSigma2            0      0.00%     62.21% # Class of committed instruction
system.cpu.commit.op_class_0::SimdShaSigma3            0      0.00%     62.21% # Class of committed instruction
system.cpu.commit.op_class_0::SimdPredAlu            0      0.00%     62.21% # Class of committed instruction
system.cpu.commit.op_class_0::MemRead          161698     16.06%     78.26% # Class of committed instruction
system.cpu.commit.op_class_0::MemWrite         218868     21.74%    100.00% # Class of committed instruction
system.cpu.commit.op_class_0::FloatMemRead            0      0.00%    100.00% # Class of committed instruction
system.cpu.commit.op_class_0::FloatMemWrite            0      0.00%    100.00% # Class of committed instruction
system.cpu.commit.op_class_0::IprAccess             0      0.00%    100.00% # Class of committed instruction
system.cpu.commit.op_class_0::InstPrefetch            0      0.00%    100.00% # Class of committed instruction
system.cpu.commit.op_class_0::total           1006970                       # Class of committed instruction
system.cpu.commit.refs                         380566                       # Number of memory references committed
system.cpu.commit.swp_count                         0                       # Number of s/w prefetches committed
system.cpu.commit.vec_insts                       339                       # Number of committed Vector instructions.
system.cpu.committedInsts                     1000001                       # Number of Instructions Simulated
system.cpu.committedOps                       1006944                       # Number of Ops (including micro ops) Simulated
system.cpu.cpi                               1.963638                       # CPI: Cycles Per Instruction
system.cpu.cpi_total                         1.963638                       # CPI: Total CPI of All Threads
system.cpu.decode.BlockedCycles               1646013                       # Number of cycles decode is blocked
system.cpu.decode.BranchMispred                   200                       # Number of times decode detected a branch misprediction
system.cpu.decode.BranchResolved               185563                       # Number of times decode resolved a branch
system.cpu.decode.DecodedInsts                1245942                       # Number of instructions handled by decode
system.cpu.decode.IdleCycles                    80111                       # Number of cycles decode is idle
system.cpu.decode.RunCycles                    142835                       # Number of cycles decode is running
system.cpu.decode.SquashCycles                   2236                       # Number of cycles decode is squashing
system.cpu.decode.SquashedInsts                   731                       # Number of squashed instructions handled by decode
system.cpu.decode.UnblockCycles                 58038                       # Number of cycles decode is unblocking
system.cpu.dtb.accesses                             0                       # DTB accesses
system.cpu.dtb.align_faults                         0                       # Number of TLB faults due to alignment restrictions
system.cpu.dtb.domain_faults                        0                       # Number of TLB faults due to domain restrictions
system.cpu.dtb.flush_entries                        0                       # Number of entries that have been flushed from TLB
system.cpu.dtb.flush_tlb                            0                       # Number of times complete TLB was flushed
system.cpu.dtb.flush_tlb_asid                       0                       # Number of times TLB was flushed by ASID
system.cpu.dtb.flush_tlb_mva                        0                       # Number of times TLB was flushed by MVA
system.cpu.dtb.flush_tlb_mva_asid                   0                       # Number of times TLB was flushed by MVA & ASID
system.cpu.dtb.hits                                 0                       # DTB hits
system.cpu.dtb.inst_accesses                        0                       # ITB inst accesses
system.cpu.dtb.inst_hits                            0                       # ITB inst hits
system.cpu.dtb.inst_misses                          0                       # ITB inst misses
system.cpu.dtb.misses                               0                       # DTB misses
system.cpu.dtb.perms_faults                         0                       # Number of TLB faults due to permissions restrictions
system.cpu.dtb.prefetch_faults                      0                       # Number of TLB faults due to prefetch
system.cpu.dtb.read_accesses                        0                       # DTB read accesses
system.cpu.dtb.read_hits                            0                       # DTB read hits
system.cpu.dtb.read_misses                          0                       # DTB read misses
system.cpu.dtb.stage2_mmu.stage2_tlb.accesses            0                       # DTB accesses
system.cpu.dtb.stage2_mmu.stage2_tlb.align_faults            0                       # Number of TLB faults due to alignment restrictions
system.cpu.dtb.stage2_mmu.stage2_tlb.domain_faults            0                       # Number of TLB faults due to domain restrictions
system.cpu.dtb.stage2_mmu.stage2_tlb.flush_entries            0                       # Number of entries that have been flushed from TLB
system.cpu.dtb.stage2_mmu.stage2_tlb.flush_tlb            0                       # Number of times complete TLB was flushed
system.cpu.dtb.stage2_mmu.stage2_tlb.flush_tlb_asid            0                       # Number of times TLB was flushed by ASID
system.cpu.dtb.stage2_mmu.stage2_tlb.flush_tlb_mva            0                       # Number of times TLB was flushed by MVA
system.cpu.dtb.stage2_mmu.stage2_tlb.flush_tlb_mva_asid            0                       # Number of times TLB was flushed by MVA & ASID
system.cpu.dtb.stage2_mmu.stage2_tlb.hits            0                       # DTB hits
system.cpu.dtb.stage2_mmu.stage2_tlb.inst_accesses            0                       # ITB inst accesses
system.cpu.dtb.stage2_mmu.stage2_tlb.inst_hits            0                       # ITB inst hits
system.cpu.dtb.stage2_mmu.stage2_tlb.inst_misses            0                       # ITB inst misses
system.cpu.dtb.stage2_mmu.stage2_tlb.misses            0                       # DTB misses
system.cpu.dtb.stage2_mmu.stage2_tlb.perms_faults            0                       # Number of TLB faults due to permissions restrictions
system.cpu.dtb.stage2_mmu.stage2_tlb.prefetch_faults            0                       # Number of TLB faults due to prefetch
system.cpu.dtb.stage2_mmu.stage2_tlb.read_accesses            0                       # DTB read accesses
system.cpu.dtb.stage2_mmu.stage2_tlb.read_hits            0                       # DTB read hits
system.cpu.dtb.stage2_mmu.stage2_tlb.read_misses            0                       # DTB read misses
system.cpu.dtb.stage2_mmu.stage2_tlb.walker.walkRequestOrigin_Requested::Data            0                       # Table walker requests started/completed, data/inst
system.cpu.dtb.stage2_mmu.stage2_tlb.walker.walkRequestOrigin_Requested::Inst            0                       # Table walker requests started/completed, data/inst
system.cpu.dtb.stage2_mmu.stage2_tlb.walker.walkRequestOrigin_Requested::total            0                       # Table walker requests started/completed, data/inst
system.cpu.dtb.stage2_mmu.stage2_tlb.walker.walkRequestOrigin_Completed::Data            0                       # Table walker requests started/completed, data/inst
system.cpu.dtb.stage2_mmu.stage2_tlb.walker.walkRequestOrigin_Completed::Inst            0                       # Table walker requests started/completed, data/inst
system.cpu.dtb.stage2_mmu.stage2_tlb.walker.walkRequestOrigin_Completed::total            0                       # Table walker requests started/completed, data/inst
system.cpu.dtb.stage2_mmu.stage2_tlb.walker.walkRequestOrigin::total            0                       # Table walker requests started/completed, data/inst
system.cpu.dtb.stage2_mmu.stage2_tlb.walker.walks            0                       # Table walker walks requested
system.cpu.dtb.stage2_mmu.stage2_tlb.write_accesses            0                       # DTB write accesses
system.cpu.dtb.stage2_mmu.stage2_tlb.write_hits            0                       # DTB write hits
system.cpu.dtb.stage2_mmu.stage2_tlb.write_misses            0                       # DTB write misses
system.cpu.dtb.walker.walkRequestOrigin_Requested::Data            0                       # Table walker requests started/completed, data/inst
system.cpu.dtb.walker.walkRequestOrigin_Requested::Inst            0                       # Table walker requests started/completed, data/inst
system.cpu.dtb.walker.walkRequestOrigin_Requested::total            0                       # Table walker requests started/completed, data/inst
system.cpu.dtb.walker.walkRequestOrigin_Completed::Data            0                       # Table walker requests started/completed, data/inst
system.cpu.dtb.walker.walkRequestOrigin_Completed::Inst            0                       # Table walker requests started/completed, data/inst
system.cpu.dtb.walker.walkRequestOrigin_Completed::total            0                       # Table walker requests started/completed, data/inst
system.cpu.dtb.walker.walkRequestOrigin::total            0                       # Table walker requests started/completed, data/inst
system.cpu.dtb.walker.walks                         0                       # Table walker walks requested
system.cpu.dtb.write_accesses                       0                       # DTB write accesses
system.cpu.dtb.write_hits                           0                       # DTB write hits
system.cpu.dtb.write_misses                         0                       # DTB write misses
system.cpu.fetch.Branches                      208278                       # Number of branches that fetch encountered
system.cpu.fetch.CacheLines                     65575                       # Number of cache lines fetched
system.cpu.fetch.Cycles                       1852286                       # Number of cycles fetch has run and was not squashing or blocked
system.cpu.fetch.IcacheSquashes                   422                       # Number of outstanding Icache misses that were squashed
system.cpu.fetch.IcacheWaitRetryStallCycles           73                       # Number of stall cycles due to full MSHR
system.cpu.fetch.Insts                        1302728                       # Number of instructions fetch has processed
system.cpu.fetch.MiscStallCycles                    5                       # Number of cycles fetch has spent waiting on interrupts, or bad addresses, or out of MSHRs
system.cpu.fetch.SquashCycles                    4868                       # Number of cycles fetch has spent squashing
system.cpu.fetch.branchRate                  0.106067                       # Number of branch fetches per cycle
system.cpu.fetch.icacheStallCycles              74435                       # Number of cycles fetch is stalled on an Icache miss
system.cpu.fetch.predictedBranches             202920                       # Number of branches that fetch has predicted taken
system.cpu.fetch.rate                        0.663425                       # Number of inst fetches per cycle
system.cpu.fetch.rateDist::samples            1929233                       # Number of instructions fetched each cycle (Total)
system.cpu.fetch.rateDist::mean              0.679900                       # Number of instructions fetched each cycle (Total)
system.cpu.fetch.rateDist::stdev             1.766899                       # Number of instructions fetched each cycle (Total)
system.cpu.fetch.rateDist::underflows               0      0.00%      0.00% # Number of instructions fetched each cycle (Total)
system.cpu.fetch.rateDist::0                  1643148     85.17%     85.17% # Number of instructions fetched each cycle (Total)
system.cpu.fetch.rateDist::1                     3043      0.16%     85.33% # Number of instructions fetched each cycle (Total)
system.cpu.fetch.rateDist::2                    25836      1.34%     86.67% # Number of instructions fetched each cycle (Total)
system.cpu.fetch.rateDist::3                     1116      0.06%     86.73% # Number of instructions fetched each cycle (Total)
system.cpu.fetch.rateDist::4                   190997      9.90%     96.63% # Number of instructions fetched each cycle (Total)
system.cpu.fetch.rateDist::5                     5062      0.26%     96.89% # Number of instructions fetched each cycle (Total)
system.cpu.fetch.rateDist::6                     6344      0.33%     97.22% # Number of instructions fetched each cycle (Total)
system.cpu.fetch.rateDist::7                     3236      0.17%     97.38% # Number of instructions fetched each cycle (Total)
system.cpu.fetch.rateDist::8                    50451      2.62%    100.00% # Number of instructions fetched each cycle (Total)
system.cpu.fetch.rateDist::overflows                0      0.00%    100.00% # Number of instructions fetched each cycle (Total)
system.cpu.fetch.rateDist::min_value                0                       # Number of instructions fetched each cycle (Total)
system.cpu.fetch.rateDist::max_value                8                       # Number of instructions fetched each cycle (Total)
system.cpu.fetch.rateDist::total              1929233                       # Number of instructions fetched each cycle (Total)
system.cpu.icache.prefetcher.num_hwpf_issued          553                       # number of hwpf issued
system.cpu.icache.prefetcher.pfBufferHit            0                       # number of redundant prefetches already in prefetch queue
system.cpu.icache.prefetcher.pfIdentified          569                       # number of prefetch candidates identified
system.cpu.icache.prefetcher.pfInCache              0                       # number of redundant prefetches already in cache/mshr dropped
system.cpu.icache.prefetcher.pfRemovedFull            0                       # number of prefetches dropped due to prefetch queue size
system.cpu.icache.prefetcher.pfSpanPage             1                       # number of prefetches that crossed the page
system.cpu.idleCycles                           34407                       # Total number of cycles that the CPU has spent unscheduled due to idling
system.cpu.iew.branchMispredicts                  788                       # Number of branch mispredicts detected at execute
system.cpu.iew.exec_branches                   184889                       # Number of branches executed
system.cpu.iew.exec_nop                            48                       # number of nop insts executed
system.cpu.iew.exec_rate                     0.617259                       # Inst execution rate
system.cpu.iew.exec_refs                       433146                       # number of memory reference insts executed
system.cpu.iew.exec_stores                     268821                       # Number of stores executed
system.cpu.iew.exec_swp                             0                       # number of swp insts executed
system.cpu.iew.iewBlockCycles                   25105                       # Number of cycles IEW is blocking
system.cpu.iew.iewDispLoadInsts                163688                       # Number of dispatched load instructions
system.cpu.iew.iewDispNonSpecInsts                 45                       # Number of dispatched non-speculative instructions
system.cpu.iew.iewDispSquashedInsts               342                       # Number of squashed instructions skipped by dispatch
system.cpu.iew.iewDispStoreInsts               269843                       # Number of dispatched store instructions
system.cpu.iew.iewDispatchedInsts             1215895                       # Number of instructions dispatched to IQ
system.cpu.iew.iewExecLoadInsts                164325                       # Number of load instructions executed
system.cpu.iew.iewExecSquashedInsts               866                       # Number of squashed instructions skipped in execute
system.cpu.iew.iewExecutedInsts               1212075                       # Number of executed instructions
system.cpu.iew.iewIQFullEvents                     20                       # Number of times the IQ has become full, causing a stall
system.cpu.iew.iewIdleCycles                        0                       # Number of cycles IEW is idle
system.cpu.iew.iewLSQFullEvents                 80918                       # Number of times the LSQ has become full, causing a stall
system.cpu.iew.iewSquashCycles                   2236                       # Number of cycles IEW is squashing
system.cpu.iew.iewUnblockCycles                 80950                       # Number of cycles IEW is unblocking
system.cpu.iew.lsq.thread0.blockedLoads             0                       # Number of blocked loads due to partial load-store forwarding
system.cpu.iew.lsq.thread0.cacheBlocked         79351                       # Number of times an access to memory failed due to the cache being blocked
system.cpu.iew.lsq.thread0.forwLoads             3763                       # Number of loads that had data forwarded from stores
system.cpu.iew.lsq.thread0.ignoredResponses            4                       # Number of memory responses ignored because the instruction is squashed
system.cpu.iew.lsq.thread0.invAddrLoads             0                       # Number of loads ignored due to an invalid address
system.cpu.iew.lsq.thread0.invAddrSwpfs             0                       # Number of software prefetches ignored due to an invalid address
system.cpu.iew.lsq.thread0.memOrderViolation            9                       # Number of memory ordering violations
system.cpu.iew.lsq.thread0.rescheduledLoads           20                       # Number of loads that were rescheduled
system.cpu.iew.lsq.thread0.squashedLoads         1990                       # Number of loads squashed
system.cpu.iew.lsq.thread0.squashedStores        50974                       # Number of stores squashed
system.cpu.iew.memOrderViolationEvents              9                       # Number of memory order violations
system.cpu.iew.predictedNotTakenIncorrect          488                       # Number of branches that were predicted not taken incorrectly
system.cpu.iew.predictedTakenIncorrect            300                       # Number of branches that were predicted taken incorrectly
system.cpu.iew.wb_consumers                   1571924                       # num instructions consuming a value
system.cpu.iew.wb_count                       1163165                       # cumulative count of insts written-back
system.cpu.iew.wb_fanout                     0.418793                       # average fanout of values written-back
system.cpu.iew.wb_producers                    658311                       # num instructions producing a value
system.cpu.iew.wb_rate                       0.592351                       # insts written-back per cycle
system.cpu.iew.wb_sent                        1210005                       # cumulative count of insts sent to commit
system.cpu.int_regfile_reads                  1604935                       # number of integer regfile reads
system.cpu.int_regfile_writes                  758577                       # number of integer regfile writes
system.cpu.ipc                               0.509259                       # IPC: Instructions Per Cycle
system.cpu.ipc_total                         0.509259                       # IPC: Total IPC of All Threads
system.cpu.iq.FU_type_0::No_OpClass                 7      0.00%      0.00% # Type of FU issued
system.cpu.iq.FU_type_0::IntAlu                778655     64.20%     64.20% # Type of FU issued
system.cpu.iq.FU_type_0::IntMult                  636      0.05%     64.25% # Type of FU issued
system.cpu.iq.FU_type_0::IntDiv                     3      0.00%     64.25% # Type of FU issued
system.cpu.iq.FU_type_0::FloatAdd                   0      0.00%     64.25% # Type of FU issued
system.cpu.iq.FU_type_0::FloatCmp                   0      0.00%     64.25% # Type of FU issued
system.cpu.iq.FU_type_0::FloatCvt                   0      0.00%     64.25% # Type of FU issued
system.cpu.iq.FU_type_0::FloatMult                  0      0.00%     64.25% # Type of FU issued
system.cpu.iq.FU_type_0::FloatMultAcc               0      0.00%     64.25% # Type of FU issued
system.cpu.iq.FU_type_0::FloatDiv                   0      0.00%     64.25% # Type of FU issued
system.cpu.iq.FU_type_0::FloatMisc                  1      0.00%     64.25% # Type of FU issued
system.cpu.iq.FU_type_0::FloatSqrt                  0      0.00%     64.25% # Type of FU issued
system.cpu.iq.FU_type_0::SimdAdd                   27      0.00%     64.25% # Type of FU issued
system.cpu.iq.FU_type_0::SimdAddAcc                 0      0.00%     64.25% # Type of FU issued
system.cpu.iq.FU_type_0::SimdAlu                   28      0.00%     64.25% # Type of FU issued
system.cpu.iq.FU_type_0::SimdCmp                   28      0.00%     64.26% # Type of FU issued
system.cpu.iq.FU_type_0::SimdCvt                    0      0.00%     64.26% # Type of FU issued
system.cpu.iq.FU_type_0::SimdMisc                  25      0.00%     64.26% # Type of FU issued
system.cpu.iq.FU_type_0::SimdMult                   0      0.00%     64.26% # Type of FU issued
system.cpu.iq.FU_type_0::SimdMultAcc                0      0.00%     64.26% # Type of FU issued
system.cpu.iq.FU_type_0::SimdShift                  0      0.00%     64.26% # Type of FU issued
system.cpu.iq.FU_type_0::SimdShiftAcc               0      0.00%     64.26% # Type of FU issued
system.cpu.iq.FU_type_0::SimdDiv                    0      0.00%     64.26% # Type of FU issued
system.cpu.iq.FU_type_0::SimdSqrt                   0      0.00%     64.26% # Type of FU issued
system.cpu.iq.FU_type_0::SimdFloatAdd               0      0.00%     64.26% # Type of FU issued
system.cpu.iq.FU_type_0::SimdFloatAlu               0      0.00%     64.26% # Type of FU issued
system.cpu.iq.FU_type_0::SimdFloatCmp               0      0.00%     64.26% # Type of FU issued
system.cpu.iq.FU_type_0::SimdFloatCvt               0      0.00%     64.26% # Type of FU issued
system.cpu.iq.FU_type_0::SimdFloatDiv               0      0.00%     64.26% # Type of FU issued
system.cpu.iq.FU_type_0::SimdFloatMisc              0      0.00%     64.26% # Type of FU issued
system.cpu.iq.FU_type_0::SimdFloatMult              0      0.00%     64.26% # Type of FU issued
system.cpu.iq.FU_type_0::SimdFloatMultAcc            0      0.00%     64.26% # Type of FU issued
system.cpu.iq.FU_type_0::SimdFloatSqrt              0      0.00%     64.26% # Type of FU issued
system.cpu.iq.FU_type_0::SimdReduceAdd              0      0.00%     64.26% # Type of FU issued
system.cpu.iq.FU_type_0::SimdReduceAlu              0      0.00%     64.26% # Type of FU issued
system.cpu.iq.FU_type_0::SimdReduceCmp              0      0.00%     64.26% # Type of FU issued
system.cpu.iq.FU_type_0::SimdFloatReduceAdd            0      0.00%     64.26% # Type of FU issued
system.cpu.iq.FU_type_0::SimdFloatReduceCmp            0      0.00%     64.26% # Type of FU issued
system.cpu.iq.FU_type_0::SimdAes                    0      0.00%     64.26% # Type of FU issued
system.cpu.iq.FU_type_0::SimdAesMix                 0      0.00%     64.26% # Type of FU issued
system.cpu.iq.FU_type_0::SimdSha1Hash               0      0.00%     64.26% # Type of FU issued
system.cpu.iq.FU_type_0::SimdSha1Hash2              0      0.00%     64.26% # Type of FU issued
system.cpu.iq.FU_type_0::SimdSha256Hash             0      0.00%     64.26% # Type of FU issued
system.cpu.iq.FU_type_0::SimdSha256Hash2            0      0.00%     64.26% # Type of FU issued
system.cpu.iq.FU_type_0::SimdShaSigma2              0      0.00%     64.26% # Type of FU issued
system.cpu.iq.FU_type_0::SimdShaSigma3              0      0.00%     64.26% # Type of FU issued
system.cpu.iq.FU_type_0::SimdPredAlu                0      0.00%     64.26% # Type of FU issued
system.cpu.iq.FU_type_0::MemRead               164471     13.56%     77.82% # Type of FU issued
system.cpu.iq.FU_type_0::MemWrite              269061     22.18%    100.00% # Type of FU issued
system.cpu.iq.FU_type_0::FloatMemRead               0      0.00%    100.00% # Type of FU issued
system.cpu.iq.FU_type_0::FloatMemWrite              0      0.00%    100.00% # Type of FU issued
system.cpu.iq.FU_type_0::IprAccess                  0      0.00%    100.00% # Type of FU issued
system.cpu.iq.FU_type_0::InstPrefetch               0      0.00%    100.00% # Type of FU issued
system.cpu.iq.FU_type_0::total                1212942                       # Type of FU issued
system.cpu.iq.fp_alu_accesses                       0                       # Number of floating point alu accesses
system.cpu.iq.fp_inst_queue_reads                   0                       # Number of floating instruction queue reads
system.cpu.iq.fp_inst_queue_wakeup_accesses            0                       # Number of floating instruction queue wakeup accesses
system.cpu.iq.fp_inst_queue_writes                  0                       # Number of floating instruction queue writes
system.cpu.iq.fu_busy_cnt                       23047                       # FU busy when requested
system.cpu.iq.fu_busy_rate                   0.019001                       # FU busy rate (busy events/executed inst)
system.cpu.iq.fu_full::No_OpClass                   0      0.00%      0.00% # attempts to use FU when none available
system.cpu.iq.fu_full::IntAlu                     487      2.11%      2.11% # attempts to use FU when none available
system.cpu.iq.fu_full::IntMult                      0      0.00%      2.11% # attempts to use FU when none available
system.cpu.iq.fu_full::IntDiv                       0      0.00%      2.11% # attempts to use FU when none available
system.cpu.iq.fu_full::FloatAdd                     0      0.00%      2.11% # attempts to use FU when none available
system.cpu.iq.fu_full::FloatCmp                     0      0.00%      2.11% # attempts to use FU when none available
system.cpu.iq.fu_full::FloatCvt                     0      0.00%      2.11% # attempts to use FU when none available
system.cpu.iq.fu_full::FloatMult                    0      0.00%      2.11% # attempts to use FU when none available
system.cpu.iq.fu_full::FloatMultAcc                 0      0.00%      2.11% # attempts to use FU when none available
system.cpu.iq.fu_full::FloatDiv                     0      0.00%      2.11% # attempts to use FU when none available
system.cpu.iq.fu_full::FloatMisc                    0      0.00%      2.11% # attempts to use FU when none available
system.cpu.iq.fu_full::FloatSqrt                    0      0.00%      2.11% # attempts to use FU when none available
system.cpu.iq.fu_full::SimdAdd                      0      0.00%      2.11% # attempts to use FU when none available
system.cpu.iq.fu_full::SimdAddAcc                   0      0.00%      2.11% # attempts to use FU when none available
system.cpu.iq.fu_full::SimdAlu                      2      0.01%      2.12% # attempts to use FU when none available
system.cpu.iq.fu_full::SimdCmp                      3      0.01%      2.13% # attempts to use FU when none available
system.cpu.iq.fu_full::SimdCvt                      0      0.00%      2.13% # attempts to use FU when none available
system.cpu.iq.fu_full::SimdMisc                     0      0.00%      2.13% # attempts to use FU when none available
system.cpu.iq.fu_full::SimdMult                     0      0.00%      2.13% # attempts to use FU when none available
system.cpu.iq.fu_full::SimdMultAcc                  0      0.00%      2.13% # attempts to use FU when none available
system.cpu.iq.fu_full::SimdShift                    0      0.00%      2.13% # attempts to use FU when none available
system.cpu.iq.fu_full::SimdShiftAcc                 0      0.00%      2.13% # attempts to use FU when none available
system.cpu.iq.fu_full::SimdDiv                      0      0.00%      2.13% # attempts to use FU when none available
system.cpu.iq.fu_full::SimdSqrt                     0      0.00%      2.13% # attempts to use FU when none available
system.cpu.iq.fu_full::SimdFloatAdd                 0      0.00%      2.13% # attempts to use FU when none available
system.cpu.iq.fu_full::SimdFloatAlu                 0      0.00%      2.13% # attempts to use FU when none available
system.cpu.iq.fu_full::SimdFloatCmp                 0      0.00%      2.13% # attempts to use FU when none available
system.cpu.iq.fu_full::SimdFloatCvt                 0      0.00%      2.13% # attempts to use FU when none available
system.cpu.iq.fu_full::SimdFloatDiv                 0      0.00%      2.13% # attempts to use FU when none available
system.cpu.iq.fu_full::SimdFloatMisc                0      0.00%      2.13% # attempts to use FU when none available
system.cpu.iq.fu_full::SimdFloatMult                0      0.00%      2.13% # attempts to use FU when none available
system.cpu.iq.fu_full::SimdFloatMultAcc             0      0.00%      2.13% # attempts to use FU when none available
system.cpu.iq.fu_full::SimdFloatSqrt                0      0.00%      2.13% # attempts to use FU when none available
system.cpu.iq.fu_full::SimdReduceAdd                0      0.00%      2.13% # attempts to use FU when none available
system.cpu.iq.fu_full::SimdReduceAlu                0      0.00%      2.13% # attempts to use FU when none available
system.cpu.iq.fu_full::SimdReduceCmp                0      0.00%      2.13% # attempts to use FU when none available
system.cpu.iq.fu_full::SimdFloatReduceAdd            0      0.00%      2.13% # attempts to use FU when none available
system.cpu.iq.fu_full::SimdFloatReduceCmp            0      0.00%      2.13% # attempts to use FU when none available
system.cpu.iq.fu_full::SimdAes                      0      0.00%      2.13% # attempts to use FU when none available
system.cpu.iq.fu_full::SimdAesMix                   0      0.00%      2.13% # attempts to use FU when none available
system.cpu.iq.fu_full::SimdSha1Hash                 0      0.00%      2.13% # attempts to use FU when none available
system.cpu.iq.fu_full::SimdSha1Hash2                0      0.00%      2.13% # attempts to use FU when none available
system.cpu.iq.fu_full::SimdSha256Hash               0      0.00%      2.13% # attempts to use FU when none available
system.cpu.iq.fu_full::SimdSha256Hash2              0      0.00%      2.13% # attempts to use FU when none available
system.cpu.iq.fu_full::SimdShaSigma2                0      0.00%      2.13% # attempts to use FU when none available
system.cpu.iq.fu_full::SimdShaSigma3                0      0.00%      2.13% # attempts to use FU when none available
system.cpu.iq.fu_full::SimdPredAlu                  0      0.00%      2.13% # attempts to use FU when none available
system.cpu.iq.fu_full::MemRead                  21792     94.55%     96.69% # attempts to use FU when none available
system.cpu.iq.fu_full::MemWrite                   763      3.31%    100.00% # attempts to use FU when none available
system.cpu.iq.fu_full::FloatMemRead                 0      0.00%    100.00% # attempts to use FU when none available
system.cpu.iq.fu_full::FloatMemWrite                0      0.00%    100.00% # attempts to use FU when none available
system.cpu.iq.fu_full::IprAccess                    0      0.00%    100.00% # attempts to use FU when none available
system.cpu.iq.fu_full::InstPrefetch                 0      0.00%    100.00% # attempts to use FU when none available
system.cpu.iq.int_alu_accesses                1235364                       # Number of integer alu accesses
system.cpu.iq.int_inst_queue_reads            4377065                       # Number of integer instruction queue reads
system.cpu.iq.int_inst_queue_wakeup_accesses      1162697                       # Number of integer instruction queue wakeup accesses
system.cpu.iq.int_inst_queue_writes           1423581                       # Number of integer instruction queue writes
system.cpu.iq.iqInstsAdded                    1215802                       # Number of instructions added to the IQ (excludes non-spec)
system.cpu.iq.iqInstsIssued                   1212942                       # Number of instructions issued
system.cpu.iq.iqNonSpecInstsAdded                  45                       # Number of non-speculative instructions added to the IQ
system.cpu.iq.iqSquashedInstsExamined          208898                       # Number of squashed instructions iterated over during squash; mainly for profiling
system.cpu.iq.iqSquashedInstsIssued               187                       # Number of squashed instructions issued
system.cpu.iq.iqSquashedNonSpecRemoved             14                       # Number of squashed non-spec instructions that were removed
system.cpu.iq.iqSquashedOperandsExamined       244854                       # Number of squashed operands that are examined and possibly removed from graph
system.cpu.iq.issued_per_cycle::samples       1929233                       # Number of insts issued each cycle
system.cpu.iq.issued_per_cycle::mean         0.628717                       # Number of insts issued each cycle
system.cpu.iq.issued_per_cycle::stdev        1.393001                       # Number of insts issued each cycle
system.cpu.iq.issued_per_cycle::underflows            0      0.00%      0.00% # Number of insts issued each cycle
system.cpu.iq.issued_per_cycle::0             1512487     78.40%     78.40% # Number of insts issued each cycle
system.cpu.iq.issued_per_cycle::1              121978      6.32%     84.72% # Number of insts issued each cycle
system.cpu.iq.issued_per_cycle::2               32710      1.70%     86.42% # Number of insts issued each cycle
system.cpu.iq.issued_per_cycle::3              100987      5.23%     91.65% # Number of insts issued each cycle
system.cpu.iq.issued_per_cycle::4              109699      5.69%     97.34% # Number of insts issued each cycle
system.cpu.iq.issued_per_cycle::5               28134      1.46%     98.80% # Number of insts issued each cycle
system.cpu.iq.issued_per_cycle::6               20258      1.05%     99.85% # Number of insts issued each cycle
system.cpu.iq.issued_per_cycle::7                2271      0.12%     99.96% # Number of insts issued each cycle
system.cpu.iq.issued_per_cycle::8                 709      0.04%    100.00% # Number of insts issued each cycle
system.cpu.iq.issued_per_cycle::overflows            0      0.00%    100.00% # Number of insts issued each cycle
system.cpu.iq.issued_per_cycle::min_value            0                       # Number of insts issued each cycle
system.cpu.iq.issued_per_cycle::max_value            8                       # Number of insts issued each cycle
system.cpu.iq.issued_per_cycle::total         1929233                       # Number of insts issued each cycle
system.cpu.iq.rate                           0.617701                       # Inst issue rate
system.cpu.iq.vec_alu_accesses                    618                       # Number of vector alu accesses
system.cpu.iq.vec_inst_queue_reads               1285                       # Number of vector instruction queue reads
system.cpu.iq.vec_inst_queue_wakeup_accesses          468                       # Number of vector instruction queue wakeup accesses
system.cpu.iq.vec_inst_queue_writes              1173                       # Number of vector instruction queue writes
system.cpu.itb.accesses                             0                       # DTB accesses
system.cpu.itb.align_faults                         0                       # Number of TLB faults due to alignment restrictions
system.cpu.itb.domain_faults                        0                       # Number of TLB faults due to domain restrictions
system.cpu.itb.flush_entries                        0                       # Number of entries that have been flushed from TLB
system.cpu.itb.flush_tlb                            0                       # Number of times complete TLB was flushed
system.cpu.itb.flush_tlb_asid                       0                       # Number of times TLB was flushed by ASID
system.cpu.itb.flush_tlb_mva                        0                       # Number of times TLB was flushed by MVA
system.cpu.itb.flush_tlb_mva_asid                   0                       # Number of times TLB was flushed by MVA & ASID
system.cpu.itb.hits                                 0                       # DTB hits
system.cpu.itb.inst_accesses                        0                       # ITB inst accesses
system.cpu.itb.inst_hits                            0                       # ITB inst hits
system.cpu.itb.inst_misses                          0                       # ITB inst misses
system.cpu.itb.misses                               0                       # DTB misses
system.cpu.itb.perms_faults                         0                       # Number of TLB faults due to permissions restrictions
system.cpu.itb.prefetch_faults                      0                       # Number of TLB faults due to prefetch
system.cpu.itb.read_accesses                        0                       # DTB read accesses
system.cpu.itb.read_hits                            0                       # DTB read hits
system.cpu.itb.read_misses                          0                       # DTB read misses
system.cpu.itb.stage2_mmu.stage2_tlb.accesses            0                       # DTB accesses
system.cpu.itb.stage2_mmu.stage2_tlb.align_faults            0                       # Number of TLB faults due to alignment restrictions
system.cpu.itb.stage2_mmu.stage2_tlb.domain_faults            0                       # Number of TLB faults due to domain restrictions
system.cpu.itb.stage2_mmu.stage2_tlb.flush_entries            0                       # Number of entries that have been flushed from TLB
system.cpu.itb.stage2_mmu.stage2_tlb.flush_tlb            0                       # Number of times complete TLB was flushed
system.cpu.itb.stage2_mmu.stage2_tlb.flush_tlb_asid            0                       # Number of times TLB was flushed by ASID
system.cpu.itb.stage2_mmu.stage2_tlb.flush_tlb_mva            0                       # Number of times TLB was flushed by MVA
system.cpu.itb.stage2_mmu.stage2_tlb.flush_tlb_mva_asid            0                       # Number of times TLB was flushed by MVA & ASID
system.cpu.itb.stage2_mmu.stage2_tlb.hits            0                       # DTB hits
system.cpu.itb.stage2_mmu.stage2_tlb.inst_accesses            0                       # ITB inst accesses
system.cpu.itb.stage2_mmu.stage2_tlb.inst_hits            0                       # ITB inst hits
system.cpu.itb.stage2_mmu.stage2_tlb.inst_misses            0                       # ITB inst misses
system.cpu.itb.stage2_mmu.stage2_tlb.misses            0                       # DTB misses
system.cpu.itb.stage2_mmu.stage2_tlb.perms_faults            0                       # Number of TLB faults due to permissions restrictions
system.cpu.itb.stage2_mmu.stage2_tlb.prefetch_faults            0                       # Number of TLB faults due to prefetch
system.cpu.itb.stage2_mmu.stage2_tlb.read_accesses            0                       # DTB read accesses
system.cpu.itb.stage2_mmu.stage2_tlb.read_hits            0                       # DTB read hits
system.cpu.itb.stage2_mmu.stage2_tlb.read_misses            0                       # DTB read misses
system.cpu.itb.stage2_mmu.stage2_tlb.walker.walkRequestOrigin_Requested::Data            0                       # Table walker requests started/completed, data/inst
system.cpu.itb.stage2_mmu.stage2_tlb.walker.walkRequestOrigin_Requested::Inst            0                       # Table walker requests started/completed, data/inst
system.cpu.itb.stage2_mmu.stage2_tlb.walker.walkRequestOrigin_Requested::total            0                       # Table walker requests started/completed, data/inst
system.cpu.itb.stage2_mmu.stage2_tlb.walker.walkRequestOrigin_Completed::Data            0                       # Table walker requests started/completed, data/inst
system.cpu.itb.stage2_mmu.stage2_tlb.walker.walkRequestOrigin_Completed::Inst            0                       # Table walker requests started/completed, data/inst
system.cpu.itb.stage2_mmu.stage2_tlb.walker.walkRequestOrigin_Completed::total            0                       # Table walker requests started/completed, data/inst
system.cpu.itb.stage2_mmu.stage2_tlb.walker.walkRequestOrigin::total            0                       # Table walker requests started/completed, data/inst
system.cpu.itb.stage2_mmu.stage2_tlb.walker.walks            0                       # Table walker walks requested
system.cpu.itb.stage2_mmu.stage2_tlb.write_accesses            0                       # DTB write accesses
system.cpu.itb.stage2_mmu.stage2_tlb.write_hits            0                       # DTB write hits
system.cpu.itb.stage2_mmu.stage2_tlb.write_misses            0                       # DTB write misses
system.cpu.itb.walker.walkRequestOrigin_Requested::Data            0                       # Table walker requests started/completed, data/inst
system.cpu.itb.walker.walkRequestOrigin_Requested::Inst            0                       # Table walker requests started/completed, data/inst
system.cpu.itb.walker.walkRequestOrigin_Requested::total            0                       # Table walker requests started/completed, data/inst
system.cpu.itb.walker.walkRequestOrigin_Completed::Data            0                       # Table walker requests started/completed, data/inst
system.cpu.itb.walker.walkRequestOrigin_Completed::Inst            0                       # Table walker requests started/completed, data/inst
system.cpu.itb.walker.walkRequestOrigin_Completed::total            0                       # Table walker requests started/completed, data/inst
system.cpu.itb.walker.walkRequestOrigin::total            0                       # Table walker requests started/completed, data/inst
system.cpu.itb.walker.walks                         0                       # Table walker walks requested
system.cpu.itb.write_accesses                       0                       # DTB write accesses
system.cpu.itb.write_hits                           0                       # DTB write hits
system.cpu.itb.write_misses                         0                       # DTB write misses
system.cpu.memDep0.conflictingLoads              2490                       # Number of conflicting loads.
system.cpu.memDep0.conflictingStores             2607                       # Number of conflicting stores.
system.cpu.memDep0.insertedLoads               163688                       # Number of loads inserted to the mem dependence unit.
system.cpu.memDep0.insertedStores              269843                       # Number of stores inserted to the mem dependence unit.
system.cpu.misc_regfile_reads                 1879286                       # number of misc regfile reads
system.cpu.misc_regfile_writes                     81                       # number of misc regfile writes
system.cpu.numCycles                          1963640                       # number of cpu cycles simulated
system.cpu.numWorkItemsCompleted                    0                       # number of work items this cpu completed
system.cpu.numWorkItemsStarted                      0                       # number of work items this cpu started
system.cpu.rename.BlockCycles                  106698                       # Number of cycles rename is blocking
system.cpu.rename.CommittedMaps               1270067                       # Number of HB maps that are committed
system.cpu.rename.IQFullEvents                   8650                       # Number of times rename has blocked due to IQ full
system.cpu.rename.IdleCycles                   101595                       # Number of cycles rename is idle
system.cpu.rename.LQFullEvents                    360                       # Number of times rename has blocked due to LQ full
system.cpu.rename.ROBFullEvents                     2                       # Number of times rename has blocked due to ROB full
system.cpu.rename.RenameLookups               2968905                       # Number of register rename lookups that rename has made
system.cpu.rename.RenamedInsts                1219877                       # Number of instructions processed by rename
system.cpu.rename.RenamedOperands             1533814                       # Number of destination operands rename has renamed
system.cpu.rename.RunCycles                    177830                       # Number of cycles rename is running
system.cpu.rename.SQFullEvents                1524978                       # Number of times rename has blocked due to SQ full
system.cpu.rename.SquashCycles                   2236                       # Number of cycles rename is squashing
system.cpu.rename.UnblockCycles               1536525                       # Number of cycles rename is unblocking
system.cpu.rename.UndoneMaps                   263732                       # Number of HB maps that are undone due to squashing
system.cpu.rename.int_rename_lookups          1616512                       # Number of integer rename lookups
system.cpu.rename.serializeStallCycles           4349                       # count of cycles rename stalled for serializing inst
system.cpu.rename.serializingInsts                112                       # count of serializing insts renamed
system.cpu.rename.skidInsts                    381516                       # count of insts added to the skid buffer
system.cpu.rename.tempSerializingInsts             50                       # count of temporary serializing insts renamed
system.cpu.rename.vec_rename_lookups              861                       # Number of vector rename lookups
system.cpu.rob.rob_reads                      3044768                       # The number of ROB reads
system.cpu.rob.rob_writes                     2445578                       # The number of ROB writes
system.cpu.timesIdled                             325                       # Number of times that the entire CPU went into an idle state and unscheduled itself
system.cpu.vec_regfile_reads                      523                       # number of vector regfile reads
system.cpu.vec_regfile_writes                     126                       # number of vector regfile writes
system.cpu.workload.numSyscalls                    10                       # Number of system calls
system.membus.snoop_filter.hit_multi_requests            0                       # Number of requests hitting in the snoop filter with multiple (>1) holders of the requested data.
system.membus.snoop_filter.hit_multi_snoops            0                       # Number of snoops hitting in the snoop filter with multiple (>1) holders of the requested data.
system.membus.snoop_filter.hit_single_requests        65014                       # Number of requests hitting in the snoop filter with a single holder of the requested data.
system.membus.snoop_filter.hit_single_snoops            0                       # Number of snoops hitting in the snoop filter with a single holder of the requested data.
system.membus.snoop_filter.tot_requests        164197                       # Total number of requests made to the snoop filter.
system.membus.snoop_filter.tot_snoops               0                       # Total number of snoops made to the snoop filter.
system.tol2bus.snoop_filter.hit_multi_requests            1                       # Number of requests hitting in the snoop filter with multiple (>1) holders of the requested data.
system.tol2bus.snoop_filter.hit_multi_snoops            0                       # Number of snoops hitting in the snoop filter with multiple (>1) holders of the requested data.
system.tol2bus.snoop_filter.hit_single_requests        97796                       # Number of requests hitting in the snoop filter with a single holder of the requested data.
system.tol2bus.snoop_filter.hit_single_snoops          399                       # Number of snoops hitting in the snoop filter with a single holder of the requested data.
system.tol2bus.snoop_filter.tot_requests       197020                       # Total number of requests made to the snoop filter.
system.tol2bus.snoop_filter.tot_snoops            399                       # Total number of snoops made to the snoop filter.
system.membus.trans_dist::ReadResp                545                       # Transaction distribution
system.membus.trans_dist::WritebackDirty        64860                       # Transaction distribution
system.membus.trans_dist::CleanEvict              127                       # Transaction distribution
system.membus.trans_dist::ReadExReq              2717                       # Transaction distribution
system.membus.trans_dist::ReadExResp             2717                       # Transaction distribution
system.membus.trans_dist::ReadSharedReq           545                       # Transaction distribution
system.membus.trans_dist::InvalidateReq         95921                       # Transaction distribution
system.membus.pkt_count_system.l2.mem_side::system.mem_ctrls.port       167432                       # Packet count per connected master and slave (bytes)
system.membus.pkt_count::total                 167432                       # Packet count per connected master and slave (bytes)
system.membus.pkt_size_system.l2.mem_side::system.mem_ctrls.port      4359808                       # Cumulative packet size per connected master and slave (bytes)
system.membus.pkt_size::total                 4359808                       # Cumulative packet size per connected master and slave (bytes)
system.membus.snoops                                0                       # Total snoops (count)
system.membus.snoopTraffic                          0                       # Total snoop traffic (bytes)
system.membus.snoop_fanout::samples             99183                       # Request fanout histogram
system.membus.snoop_fanout::mean                    0                       # Request fanout histogram
system.membus.snoop_fanout::stdev                   0                       # Request fanout histogram
system.membus.snoop_fanout::underflows              0      0.00%      0.00% # Request fanout histogram
system.membus.snoop_fanout::0                   99183    100.00%    100.00% # Request fanout histogram
system.membus.snoop_fanout::1                       0      0.00%    100.00% # Request fanout histogram
system.membus.snoop_fanout::overflows               0      0.00%    100.00% # Request fanout histogram
system.membus.snoop_fanout::min_value               0                       # Request fanout histogram
system.membus.snoop_fanout::max_value               0                       # Request fanout histogram
system.membus.snoop_fanout::total               99183                       # Request fanout histogram
system.membus.reqLayer0.occupancy           434088250                       # Layer occupancy (ticks)
system.membus.reqLayer0.utilization              44.2                       # Layer utilization (%)
system.membus.respLayer1.occupancy           17361500                       # Layer occupancy (ticks)
system.membus.respLayer1.utilization              1.8                       # Layer utilization (%)
system.membus.power_state.pwrStateResidencyTicks::UNDEFINED    981819500                       # Cumulative time (in ticks) in various power states
system.tol2bus.trans_dist::ReadResp               564                       # Transaction distribution
system.tol2bus.trans_dist::WritebackDirty       162527                       # Transaction distribution
system.tol2bus.trans_dist::WritebackClean           24                       # Transaction distribution
system.tol2bus.trans_dist::CleanEvict             634                       # Transaction distribution
system.tol2bus.trans_dist::ReadExReq             2735                       # Transaction distribution
system.tol2bus.trans_dist::ReadExResp            2735                       # Transaction distribution
system.tol2bus.trans_dist::ReadCleanReq           423                       # Transaction distribution
system.tol2bus.trans_dist::ReadSharedReq          141                       # Transaction distribution
system.tol2bus.trans_dist::InvalidateReq        95925                       # Transaction distribution
system.tol2bus.trans_dist::InvalidateResp        95922                       # Transaction distribution
system.tol2bus.pkt_count_system.cpu.icache.mem_side::system.l2.cpu_side          870                       # Packet count per connected master and slave (bytes)
system.tol2bus.pkt_count_system.cpu.dcache.mem_side::system.l2.cpu_side       295371                       # Packet count per connected master and slave (bytes)
system.tol2bus.pkt_count::total                296241                       # Packet count per connected master and slave (bytes)
system.tol2bus.pkt_size_system.cpu.icache.mem_side::system.l2.cpu_side        28608                       # Cumulative packet size per connected master and slave (bytes)
system.tol2bus.pkt_size_system.cpu.dcache.mem_side::system.l2.cpu_side      6434560                       # Cumulative packet size per connected master and slave (bytes)
system.tol2bus.pkt_size::total                6463168                       # Cumulative packet size per connected master and slave (bytes)
system.tol2bus.snoops                           65389                       # Total snoops (count)
system.tol2bus.snoopTraffic                   4151232                       # Total snoop traffic (bytes)
system.tol2bus.snoop_fanout::samples           164613                       # Request fanout histogram
system.tol2bus.snoop_fanout::mean            0.002430                       # Request fanout histogram
system.tol2bus.snoop_fanout::stdev           0.049235                       # Request fanout histogram
system.tol2bus.snoop_fanout::underflows             0      0.00%      0.00% # Request fanout histogram
system.tol2bus.snoop_fanout::0                 164213     99.76%     99.76% # Request fanout histogram
system.tol2bus.snoop_fanout::1                    400      0.24%    100.00% # Request fanout histogram
system.tol2bus.snoop_fanout::2                      0      0.00%    100.00% # Request fanout histogram
system.tol2bus.snoop_fanout::overflows              0      0.00%    100.00% # Request fanout histogram
system.tol2bus.snoop_fanout::min_value              0                       # Request fanout histogram
system.tol2bus.snoop_fanout::max_value              1                       # Request fanout histogram
system.tol2bus.snoop_fanout::total             164613                       # Request fanout histogram
system.tol2bus.reqLayer0.occupancy          196198000                       # Layer occupancy (ticks)
system.tol2bus.reqLayer0.utilization             20.0                       # Layer utilization (%)
system.tol2bus.respLayer1.occupancy          52275000                       # Layer occupancy (ticks)
system.tol2bus.respLayer1.utilization             5.3                       # Layer utilization (%)
system.tol2bus.respLayer0.occupancy            634500                       # Layer occupancy (ticks)
system.tol2bus.respLayer0.utilization             0.1                       # Layer utilization (%)
system.tol2bus.power_state.pwrStateResidencyTicks::UNDEFINED    981819500                       # Cumulative time (in ticks) in various power states
system.voltage_domain.voltage                       1                       # Voltage in Volts
system.clk_domain.clock                          1000                       # Clock period in ticks
system.l2.demand_hits::.cpu.inst                    2                       # number of demand (read+write) hits
system.l2.demand_hits::.cpu.data                   35                       # number of demand (read+write) hits
system.l2.demand_hits::total                       37                       # number of demand (read+write) hits
system.l2.overall_hits::.cpu.inst                   2                       # number of overall hits
system.l2.overall_hits::.cpu.data                  35                       # number of overall hits
system.l2.overall_hits::total                      37                       # number of overall hits
system.l2.demand_misses::.cpu.inst                421                       # number of demand (read+write) misses
system.l2.demand_misses::.cpu.data               2841                       # number of demand (read+write) misses
system.l2.demand_misses::total                   3262                       # number of demand (read+write) misses
system.l2.overall_misses::.cpu.inst               421                       # number of overall misses
system.l2.overall_misses::.cpu.data              2841                       # number of overall misses
system.l2.overall_misses::total                  3262                       # number of overall misses
system.l2.demand_miss_latency::.cpu.inst     33881500                       # number of demand (read+write) miss cycles
system.l2.demand_miss_latency::.cpu.data    225556000                       # number of demand (read+write) miss cycles
system.l2.demand_miss_latency::total        259437500                       # number of demand (read+write) miss cycles
system.l2.overall_miss_latency::.cpu.inst     33881500                       # number of overall miss cycles
system.l2.overall_miss_latency::.cpu.data    225556000                       # number of overall miss cycles
system.l2.overall_miss_latency::total       259437500                       # number of overall miss cycles
system.l2.demand_accesses::.cpu.inst              423                       # number of demand (read+write) accesses
system.l2.demand_accesses::.cpu.data             2876                       # number of demand (read+write) accesses
system.l2.demand_accesses::total                 3299                       # number of demand (read+write) accesses
system.l2.overall_accesses::.cpu.inst             423                       # number of overall (read+write) accesses
system.l2.overall_accesses::.cpu.data            2876                       # number of overall (read+write) accesses
system.l2.overall_accesses::total                3299                       # number of overall (read+write) accesses
system.l2.demand_miss_rate::.cpu.inst        0.995272                       # miss rate for demand accesses
system.l2.demand_miss_rate::.cpu.data        0.987830                       # miss rate for demand accesses
system.l2.demand_miss_rate::total            0.988784                       # miss rate for demand accesses
system.l2.overall_miss_rate::.cpu.inst       0.995272                       # miss rate for overall accesses
system.l2.overall_miss_rate::.cpu.data       0.987830                       # miss rate for overall accesses
system.l2.overall_miss_rate::total           0.988784                       # miss rate for overall accesses
system.l2.demand_avg_miss_latency::.cpu.inst 80478.622328                       # average overall miss latency
system.l2.demand_avg_miss_latency::.cpu.data 79393.171419                       # average overall miss latency
system.l2.demand_avg_miss_latency::total 79533.261803                       # average overall miss latency
system.l2.overall_avg_miss_latency::.cpu.inst 80478.622328                       # average overall miss latency
system.l2.overall_avg_miss_latency::.cpu.data 79393.171419                       # average overall miss latency
system.l2.overall_avg_miss_latency::total 79533.261803                       # average overall miss latency
system.l2.blocked_cycles::no_mshrs                  0                       # number of cycles access was blocked
system.l2.blocked_cycles::no_targets                0                       # number of cycles access was blocked
system.l2.blocked::no_mshrs                         0                       # number of cycles access was blocked
system.l2.blocked::no_targets                       0                       # number of cycles access was blocked
system.l2.avg_blocked_cycles::no_mshrs            nan                       # average number of cycles each access was blocked
system.l2.avg_blocked_cycles::no_targets          nan                       # average number of cycles each access was blocked
system.l2.writebacks::.writebacks               64863                       # number of writebacks
system.l2.writebacks::total                     64863                       # number of writebacks
system.l2.demand_mshr_misses::.cpu.inst           421                       # number of demand (read+write) MSHR misses
system.l2.demand_mshr_misses::.cpu.data          2841                       # number of demand (read+write) MSHR misses
system.l2.demand_mshr_misses::total              3262                       # number of demand (read+write) MSHR misses
system.l2.overall_mshr_misses::.cpu.inst          421                       # number of overall MSHR misses
system.l2.overall_mshr_misses::.cpu.data         2841                       # number of overall MSHR misses
system.l2.overall_mshr_misses::total             3262                       # number of overall MSHR misses
system.l2.demand_mshr_miss_latency::.cpu.inst     29671500                       # number of demand (read+write) MSHR miss cycles
system.l2.demand_mshr_miss_latency::.cpu.data    197146000                       # number of demand (read+write) MSHR miss cycles
system.l2.demand_mshr_miss_latency::total    226817500                       # number of demand (read+write) MSHR miss cycles
system.l2.overall_mshr_miss_latency::.cpu.inst     29671500                       # number of overall MSHR miss cycles
system.l2.overall_mshr_miss_latency::.cpu.data    197146000                       # number of overall MSHR miss cycles
system.l2.overall_mshr_miss_latency::total    226817500                       # number of overall MSHR miss cycles
system.l2.demand_mshr_miss_rate::.cpu.inst     0.995272                       # mshr miss rate for demand accesses
system.l2.demand_mshr_miss_rate::.cpu.data     0.987830                       # mshr miss rate for demand accesses
system.l2.demand_mshr_miss_rate::total       0.988784                       # mshr miss rate for demand accesses
system.l2.overall_mshr_miss_rate::.cpu.inst     0.995272                       # mshr miss rate for overall accesses
system.l2.overall_mshr_miss_rate::.cpu.data     0.987830                       # mshr miss rate for overall accesses
system.l2.overall_mshr_miss_rate::total      0.988784                       # mshr miss rate for overall accesses
system.l2.demand_avg_mshr_miss_latency::.cpu.inst 70478.622328                       # average overall mshr miss latency
system.l2.demand_avg_mshr_miss_latency::.cpu.data 69393.171419                       # average overall mshr miss latency
system.l2.demand_avg_mshr_miss_latency::total 69533.261803                       # average overall mshr miss latency
system.l2.overall_avg_mshr_miss_latency::.cpu.inst 70478.622328                       # average overall mshr miss latency
system.l2.overall_avg_mshr_miss_latency::.cpu.data 69393.171419                       # average overall mshr miss latency
system.l2.overall_avg_mshr_miss_latency::total 69533.261803                       # average overall mshr miss latency
system.l2.replacements                          65389                       # number of replacements
system.l2.WritebackDirty_hits::.writebacks        97664                       # number of WritebackDirty hits
system.l2.WritebackDirty_hits::total            97664                       # number of WritebackDirty hits
system.l2.WritebackDirty_accesses::.writebacks        97664                       # number of WritebackDirty accesses(hits+misses)
system.l2.WritebackDirty_accesses::total        97664                       # number of WritebackDirty accesses(hits+misses)
system.l2.WritebackClean_hits::.writebacks           24                       # number of WritebackClean hits
system.l2.WritebackClean_hits::total               24                       # number of WritebackClean hits
system.l2.WritebackClean_accesses::.writebacks           24                       # number of WritebackClean accesses(hits+misses)
system.l2.WritebackClean_accesses::total           24                       # number of WritebackClean accesses(hits+misses)
system.l2.ReadExReq_hits::.cpu.data                18                       # number of ReadExReq hits
system.l2.ReadExReq_hits::total                    18                       # number of ReadExReq hits
system.l2.ReadExReq_misses::.cpu.data            2717                       # number of ReadExReq misses
system.l2.ReadExReq_misses::total                2717                       # number of ReadExReq misses
system.l2.ReadExReq_miss_latency::.cpu.data    214811500                       # number of ReadExReq miss cycles
system.l2.ReadExReq_miss_latency::total     214811500                       # number of ReadExReq miss cycles
system.l2.ReadExReq_accesses::.cpu.data          2735                       # number of ReadExReq accesses(hits+misses)
system.l2.ReadExReq_accesses::total              2735                       # number of ReadExReq accesses(hits+misses)
system.l2.ReadExReq_miss_rate::.cpu.data     0.993419                       # miss rate for ReadExReq accesses
system.l2.ReadExReq_miss_rate::total         0.993419                       # miss rate for ReadExReq accesses
system.l2.ReadExReq_avg_miss_latency::.cpu.data 79062.016930                       # average ReadExReq miss latency
system.l2.ReadExReq_avg_miss_latency::total 79062.016930                       # average ReadExReq miss latency
system.l2.ReadExReq_mshr_misses::.cpu.data         2717                       # number of ReadExReq MSHR misses
system.l2.ReadExReq_mshr_misses::total           2717                       # number of ReadExReq MSHR misses
system.l2.ReadExReq_mshr_miss_latency::.cpu.data    187641500                       # number of ReadExReq MSHR miss cycles
system.l2.ReadExReq_mshr_miss_latency::total    187641500                       # number of ReadExReq MSHR miss cycles
system.l2.ReadExReq_mshr_miss_rate::.cpu.data     0.993419                       # mshr miss rate for ReadExReq accesses
system.l2.ReadExReq_mshr_miss_rate::total     0.993419                       # mshr miss rate for ReadExReq accesses
system.l2.ReadExReq_avg_mshr_miss_latency::.cpu.data 69062.016930                       # average ReadExReq mshr miss latency
system.l2.ReadExReq_avg_mshr_miss_latency::total 69062.016930                       # average ReadExReq mshr miss latency
system.l2.ReadCleanReq_hits::.cpu.inst              2                       # number of ReadCleanReq hits
system.l2.ReadCleanReq_hits::total                  2                       # number of ReadCleanReq hits
system.l2.ReadCleanReq_misses::.cpu.inst          421                       # number of ReadCleanReq misses
system.l2.ReadCleanReq_misses::total              421                       # number of ReadCleanReq misses
system.l2.ReadCleanReq_miss_latency::.cpu.inst     33881500                       # number of ReadCleanReq miss cycles
system.l2.ReadCleanReq_miss_latency::total     33881500                       # number of ReadCleanReq miss cycles
system.l2.ReadCleanReq_accesses::.cpu.inst          423                       # number of ReadCleanReq accesses(hits+misses)
system.l2.ReadCleanReq_accesses::total            423                       # number of ReadCleanReq accesses(hits+misses)
system.l2.ReadCleanReq_miss_rate::.cpu.inst     0.995272                       # miss rate for ReadCleanReq accesses
system.l2.ReadCleanReq_miss_rate::total      0.995272                       # miss rate for ReadCleanReq accesses
[...]
system.cpu.dcache.overall_misses::.cpu.data       118293                       # number of overall misses
system.cpu.dcache.overall_misses::total        118293                       # number of overall misses
system.cpu.dcache.demand_miss_latency::.cpu.data   4551174190                       # number of demand (read+write) miss cycles
system.cpu.dcache.demand_miss_latency::total   4551174190                       # number of demand (read+write) miss cycles
system.cpu.dcache.overall_miss_latency::.cpu.data   4551174190                       # number of overall miss cycles
system.cpu.dcache.overall_miss_latency::total   4551174190                       # number of overall miss cycles
system.cpu.dcache.demand_accesses::.cpu.data       377866                       # number of demand (read+write) accesses
system.cpu.dcache.demand_accesses::total       377866                       # number of demand (read+write) accesses
system.cpu.dcache.overall_accesses::.cpu.data       377874                       # number of overall (read+write) accesses
system.cpu.dcache.overall_accesses::total       377874                       # number of overall (read+write) accesses
system.cpu.dcache.demand_miss_rate::.cpu.data     0.313047                       # miss rate for demand accesses
system.cpu.dcache.demand_miss_rate::total     0.313047                       # miss rate for demand accesses
system.cpu.dcache.overall_miss_rate::.cpu.data     0.313049                       # miss rate for overall accesses
system.cpu.dcache.overall_miss_rate::total     0.313049                       # miss rate for overall accesses
system.cpu.dcache.demand_avg_miss_latency::.cpu.data 38474.716290                       # average overall miss latency
system.cpu.dcache.demand_avg_miss_latency::total 38474.716290                       # average overall miss latency
system.cpu.dcache.overall_avg_miss_latency::.cpu.data 38473.740543                       # average overall miss latency
system.cpu.dcache.overall_avg_miss_latency::total 38473.740543                       # average overall miss latency
system.cpu.dcache.blocked_cycles::no_mshrs      1475646                       # number of cycles access was blocked
system.cpu.dcache.blocked_cycles::no_targets            0                       # number of cycles access was blocked
system.cpu.dcache.blocked::no_mshrs             91848                       # number of cycles access was blocked
system.cpu.dcache.blocked::no_targets               0                       # number of cycles access was blocked
system.cpu.dcache.avg_blocked_cycles::no_mshrs    16.066175                       # average number of cycles each access was blocked
system.cpu.dcache.avg_blocked_cycles::no_targets          nan                       # average number of cycles each access was blocked
system.cpu.dcache.writebacks::.writebacks        97666                       # number of writebacks
system.cpu.dcache.writebacks::total             97666                       # number of writebacks
system.cpu.dcache.demand_mshr_hits::.cpu.data        19492                       # number of demand (read+write) MSHR hits
system.cpu.dcache.demand_mshr_hits::total        19492                       # number of demand (read+write) MSHR hits
system.cpu.dcache.overall_mshr_hits::.cpu.data        19492                       # number of overall MSHR hits
system.cpu.dcache.overall_mshr_hits::total        19492                       # number of overall MSHR hits
system.cpu.dcache.demand_mshr_misses::.cpu.data        98798                       # number of demand (read+write) MSHR misses
system.cpu.dcache.demand_mshr_misses::total        98798                       # number of demand (read+write) MSHR misses
system.cpu.dcache.overall_mshr_misses::.cpu.data        98801                       # number of overall MSHR misses
system.cpu.dcache.overall_mshr_misses::total        98801                       # number of overall MSHR misses
system.cpu.dcache.demand_mshr_miss_latency::.cpu.data   3302136053                       # number of demand (read+write) MSHR miss cycles
system.cpu.dcache.demand_mshr_miss_latency::total   3302136053                       # number of demand (read+write) MSHR miss cycles
system.cpu.dcache.overall_mshr_miss_latency::.cpu.data   3302397553                       # number of overall MSHR miss cycles
system.cpu.dcache.overall_mshr_miss_latency::total   3302397553                       # number of overall MSHR miss cycles
system.cpu.dcache.demand_mshr_miss_rate::.cpu.data     0.261463                       # mshr miss rate for demand accesses
system.cpu.dcache.demand_mshr_miss_rate::total     0.261463                       # mshr miss rate for demand accesses
system.cpu.dcache.overall_mshr_miss_rate::.cpu.data     0.261465                       # mshr miss rate for overall accesses
system.cpu.dcache.overall_mshr_miss_rate::total     0.261465                       # mshr miss rate for overall accesses
system.cpu.dcache.demand_avg_mshr_miss_latency::.cpu.data 33423.106267                       # average overall mshr miss latency
system.cpu.dcache.demand_avg_mshr_miss_latency::total 33423.106267                       # average overall mshr miss latency
system.cpu.dcache.overall_avg_mshr_miss_latency::.cpu.data 33424.738140                       # average overall mshr miss latency
system.cpu.dcache.overall_avg_mshr_miss_latency::total 33424.738140                       # average overall mshr miss latency
system.cpu.dcache.replacements                  97774                       # number of replacements
system.cpu.dcache.ReadReq_hits::.cpu.data       158662                       # number of ReadReq hits
system.cpu.dcache.ReadReq_hits::total          158662                       # number of ReadReq hits
system.cpu.dcache.ReadReq_misses::.cpu.data          383                       # number of ReadReq misses
system.cpu.dcache.ReadReq_misses::total           383                       # number of ReadReq misses
system.cpu.dcache.ReadReq_miss_latency::.cpu.data     26600500                       # number of ReadReq miss cycles
system.cpu.dcache.ReadReq_miss_latency::total     26600500                       # number of ReadReq miss cycles
system.cpu.dcache.ReadReq_accesses::.cpu.data       159045                       # number of ReadReq accesses(hits+misses)
system.cpu.dcache.ReadReq_accesses::total       159045                       # number of ReadReq accesses(hits+misses)
system.cpu.dcache.ReadReq_miss_rate::.cpu.data     0.002408                       # miss rate for ReadReq accesses
system.cpu.dcache.ReadReq_miss_rate::total     0.002408                       # miss rate for ReadReq accesses
system.cpu.dcache.ReadReq_avg_miss_latency::.cpu.data 69453.002611                       # average ReadReq miss latency
system.cpu.dcache.ReadReq_avg_miss_latency::total 69453.002611                       # average ReadReq miss latency
system.cpu.dcache.ReadReq_mshr_hits::.cpu.data          246                       # number of ReadReq MSHR hits
system.cpu.dcache.ReadReq_mshr_hits::total          246                       # number of ReadReq MSHR hits
system.cpu.dcache.ReadReq_mshr_misses::.cpu.data          137                       # number of ReadReq MSHR misses
system.cpu.dcache.ReadReq_mshr_misses::total          137                       # number of ReadReq MSHR misses
system.cpu.dcache.ReadReq_mshr_miss_latency::.cpu.data     10807000                       # number of ReadReq MSHR miss cycles
system.cpu.dcache.ReadReq_mshr_miss_latency::total     10807000                       # number of ReadReq MSHR miss cycles
system.cpu.dcache.ReadReq_mshr_miss_rate::.cpu.data     0.000861                       # mshr miss rate for ReadReq accesses
system.cpu.dcache.ReadReq_mshr_miss_rate::total     0.000861                       # mshr miss rate for ReadReq accesses
system.cpu.dcache.ReadReq_avg_mshr_miss_latency::.cpu.data 78883.211679                       # average ReadReq mshr miss latency
system.cpu.dcache.ReadReq_avg_mshr_miss_latency::total 78883.211679                       # average ReadReq mshr miss latency
system.cpu.dcache.WriteReq_hits::.cpu.data       100914                       # number of WriteReq hits
system.cpu.dcache.WriteReq_hits::total         100914                       # number of WriteReq hits
system.cpu.dcache.WriteReq_misses::.cpu.data        21986                       # number of WriteReq misses
system.cpu.dcache.WriteReq_misses::total        21986                       # number of WriteReq misses
system.cpu.dcache.WriteReq_miss_latency::.cpu.data   1356952623                       # number of WriteReq miss cycles
system.cpu.dcache.WriteReq_miss_latency::total   1356952623                       # number of WriteReq miss cycles
system.cpu.dcache.WriteReq_accesses::.cpu.data       122900                       # number of WriteReq accesses(hits+misses)
system.cpu.dcache.WriteReq_accesses::total       122900                       # number of WriteReq accesses(hits+misses)
system.cpu.dcache.WriteReq_miss_rate::.cpu.data     0.178893                       # miss rate for WriteReq accesses
system.cpu.dcache.WriteReq_miss_rate::total     0.178893                       # miss rate for WriteReq accesses
system.cpu.dcache.WriteReq_avg_miss_latency::.cpu.data 61718.940371                       # average WriteReq miss latency
system.cpu.dcache.WriteReq_avg_miss_latency::total 61718.940371                       # average WriteReq miss latency
system.cpu.dcache.WriteReq_mshr_hits::.cpu.data        19246                       # number of WriteReq MSHR hits
system.cpu.dcache.WriteReq_mshr_hits::total        19246                       # number of WriteReq MSHR hits
system.cpu.dcache.WriteReq_mshr_misses::.cpu.data         2740                       # number of WriteReq MSHR misses
system.cpu.dcache.WriteReq_mshr_misses::total         2740                       # number of WriteReq MSHR misses
system.cpu.dcache.WriteReq_mshr_miss_latency::.cpu.data    219624986                       # number of WriteReq MSHR miss cycles
system.cpu.dcache.WriteReq_mshr_miss_latency::total    219624986                       # number of WriteReq MSHR miss cycles
system.cpu.dcache.WriteReq_mshr_miss_rate::.cpu.data     0.022295                       # mshr miss rate for WriteReq accesses
system.cpu.dcache.WriteReq_mshr_miss_rate::total     0.022295                       # mshr miss rate for WriteReq accesses
system.cpu.dcache.WriteReq_avg_mshr_miss_latency::.cpu.data 80155.104380                       # average WriteReq mshr miss latency
system.cpu.dcache.WriteReq_avg_mshr_miss_latency::total 80155.104380                       # average WriteReq mshr miss latency
system.cpu.dcache.SoftPFReq_hits::.cpu.data            5                       # number of SoftPFReq hits
system.cpu.dcache.SoftPFReq_hits::total             5                       # number of SoftPFReq hits
system.cpu.dcache.SoftPFReq_misses::.cpu.data            3                       # number of SoftPFReq misses
system.cpu.dcache.SoftPFReq_misses::total            3                       # number of SoftPFReq misses
system.cpu.dcache.SoftPFReq_accesses::.cpu.data            8                       # number of SoftPFReq accesses(hits+misses)
system.cpu.dcache.SoftPFReq_accesses::total            8                       # number of SoftPFReq accesses(hits+misses)
system.cpu.dcache.SoftPFReq_miss_rate::.cpu.data     0.375000                       # miss rate for SoftPFReq accesses
system.cpu.dcache.SoftPFReq_miss_rate::total     0.375000                       # miss rate for SoftPFReq accesses
system.cpu.dcache.SoftPFReq_mshr_misses::.cpu.data            3                       # number of SoftPFReq MSHR misses
system.cpu.dcache.SoftPFReq_mshr_misses::total            3                       # number of SoftPFReq MSHR misses
system.cpu.dcache.SoftPFReq_mshr_miss_latency::.cpu.data       261500                       # number of SoftPFReq MSHR miss cycles
system.cpu.dcache.SoftPFReq_mshr_miss_latency::total       261500                       # number of SoftPFReq MSHR miss cycles
system.cpu.dcache.SoftPFReq_mshr_miss_rate::.cpu.data     0.375000                       # mshr miss rate for SoftPFReq accesses
system.cpu.dcache.SoftPFReq_mshr_miss_rate::total     0.375000                       # mshr miss rate for SoftPFReq accesses
system.cpu.dcache.SoftPFReq_avg_mshr_miss_latency::.cpu.data 87166.666667                       # average SoftPFReq mshr miss latency
system.cpu.dcache.SoftPFReq_avg_mshr_miss_latency::total 87166.666667                       # average SoftPFReq mshr miss latency
system.cpu.dcache.WriteLineReq_misses::.cpu.data        95921                       # number of WriteLineReq misses
system.cpu.dcache.WriteLineReq_misses::total        95921                       # number of WriteLineReq misses
system.cpu.dcache.WriteLineReq_miss_latency::.cpu.data   3167621067                       # number of WriteLineReq miss cycles
system.cpu.dcache.WriteLineReq_miss_latency::total   3167621067                       # number of WriteLineReq miss cycles
system.cpu.dcache.WriteLineReq_accesses::.cpu.data        95921                       # number of WriteLineReq accesses(hits+misses)
system.cpu.dcache.WriteLineReq_accesses::total        95921                       # number of WriteLineReq accesses(hits+misses)
system.cpu.dcache.WriteLineReq_miss_rate::.cpu.data            1                       # miss rate for WriteLineReq accesses
system.cpu.dcache.WriteLineReq_miss_rate::total            1                       # miss rate for WriteLineReq accesses
system.cpu.dcache.WriteLineReq_avg_miss_latency::.cpu.data 33023.228146                       # average WriteLineReq miss latency
system.cpu.dcache.WriteLineReq_avg_miss_latency::total 33023.228146                       # average WriteLineReq miss latency
system.cpu.dcache.WriteLineReq_mshr_misses::.cpu.data        95921                       # number of WriteLineReq MSHR misses
system.cpu.dcache.WriteLineReq_mshr_misses::total        95921                       # number of WriteLineReq MSHR misses
system.cpu.dcache.WriteLineReq_mshr_miss_latency::.cpu.data   3071704067                       # number of WriteLineReq MSHR miss cycles
system.cpu.dcache.WriteLineReq_mshr_miss_latency::total   3071704067                       # number of WriteLineReq MSHR miss cycles
system.cpu.dcache.WriteLineReq_mshr_miss_rate::.cpu.data            1                       # mshr miss rate for WriteLineReq accesses
system.cpu.dcache.WriteLineReq_mshr_miss_rate::total            1                       # mshr miss rate for WriteLineReq accesses
system.cpu.dcache.WriteLineReq_avg_mshr_miss_latency::.cpu.data 32023.269847                       # average WriteLineReq mshr miss latency
system.cpu.dcache.WriteLineReq_avg_mshr_miss_latency::total 32023.269847                       # average WriteLineReq mshr miss latency
system.cpu.dcache.LoadLockedReq_hits::.cpu.data           23                       # number of LoadLockedReq hits
system.cpu.dcache.LoadLockedReq_hits::total           23                       # number of LoadLockedReq hits
system.cpu.dcache.LoadLockedReq_misses::.cpu.data            1                       # number of LoadLockedReq misses
system.cpu.dcache.LoadLockedReq_misses::total            1                       # number of LoadLockedReq misses
system.cpu.dcache.LoadLockedReq_miss_latency::.cpu.data        86500                       # number of LoadLockedReq miss cycles
system.cpu.dcache.LoadLockedReq_miss_latency::total        86500                       # number of LoadLockedReq miss cycles
system.cpu.dcache.LoadLockedReq_accesses::.cpu.data           24                       # number of LoadLockedReq accesses(hits+misses)
system.cpu.dcache.LoadLockedReq_accesses::total           24                       # number of LoadLockedReq accesses(hits+misses)
system.cpu.dcache.LoadLockedReq_miss_rate::.cpu.data     0.041667                       # miss rate for LoadLockedReq accesses
system.cpu.dcache.LoadLockedReq_miss_rate::total     0.041667                       # miss rate for LoadLockedReq accesses
system.cpu.dcache.LoadLockedReq_avg_miss_latency::.cpu.data        86500                       # average LoadLockedReq miss latency
system.cpu.dcache.LoadLockedReq_avg_miss_latency::total        86500                       # average LoadLockedReq miss latency
system.cpu.dcache.LoadLockedReq_mshr_misses::.cpu.data            1                       # number of LoadLockedReq MSHR misses
system.cpu.dcache.LoadLockedReq_mshr_misses::total            1                       # number of LoadLockedReq MSHR misses
system.cpu.dcache.LoadLockedReq_mshr_miss_latency::.cpu.data        85500                       # number of LoadLockedReq MSHR miss cycles
system.cpu.dcache.LoadLockedReq_mshr_miss_latency::total        85500                       # number of LoadLockedReq MSHR miss cycles
system.cpu.dcache.LoadLockedReq_mshr_miss_rate::.cpu.data     0.041667                       # mshr miss rate for LoadLockedReq accesses
system.cpu.dcache.LoadLockedReq_mshr_miss_rate::total     0.041667                       # mshr miss rate for LoadLockedReq accesses
system.cpu.dcache.LoadLockedReq_avg_mshr_miss_latency::.cpu.data        85500                       # average LoadLockedReq mshr miss latency
system.cpu.dcache.LoadLockedReq_avg_mshr_miss_latency::total        85500                       # average LoadLockedReq mshr miss latency
system.cpu.dcache.StoreCondReq_hits::.cpu.data           20                       # number of StoreCondReq hits
system.cpu.dcache.StoreCondReq_hits::total           20                       # number of StoreCondReq hits
system.cpu.dcache.StoreCondReq_accesses::.cpu.data           20                       # number of StoreCondReq accesses(hits+misses)
system.cpu.dcache.StoreCondReq_accesses::total           20                       # number of StoreCondReq accesses(hits+misses)
system.cpu.dcache.power_state.pwrStateResidencyTicks::UNDEFINED    981819500                       # Cumulative time (in ticks) in various power states
system.cpu.dcache.tags.tagsinuse           986.747711                       # Cycle average of tags in use
system.cpu.dcache.tags.total_refs              358422                       # Total number of references to valid blocks.
system.cpu.dcache.tags.sampled_refs             98798                       # Sample count of references to valid blocks.
system.cpu.dcache.tags.avg_refs              3.627826                       # Average number of references to valid blocks.
system.cpu.dcache.tags.warmup_cycle            268500                       # Cycle when the warmup percentage was hit.
system.cpu.dcache.tags.occ_blocks::.cpu.data   986.747711                       # Average occupied blocks per requestor
system.cpu.dcache.tags.occ_percent::.cpu.data     0.963621                       # Average percentage of cache occupancy
system.cpu.dcache.tags.occ_percent::total     0.963621                       # Average percentage of cache occupancy
system.cpu.dcache.tags.occ_task_id_blocks::1024         1024                       # Occupied blocks per task id
system.cpu.dcache.tags.age_task_id_blocks_1024::0         1024                       # Occupied blocks per task id
system.cpu.dcache.tags.occ_task_id_percent::1024            1                       # Percentage of cache occupancy per task id
system.cpu.dcache.tags.tag_accesses            854634                       # Number of tag accesses
system.cpu.dcache.tags.data_accesses           854634                       # Number of data accesses
system.cpu.dcache.tags.power_state.pwrStateResidencyTicks::UNDEFINED    981819500                       # Cumulative time (in ticks) in various power states
system.cpu.power_state.pwrStateResidencyTicks::ON    981819500                       # Cumulative time (in ticks) in various power states

---------- End Simulation Statistics   ----------
