
---------- Begin Simulation Statistics ----------
final_tick                                 3081149500                       # Number of ticks from beginning of simulation (restored from checkpoints and never reset)
host_inst_rate                                 139852                       # Simulator instruction rate (inst/s)
host_mem_usage                                 896236                       # Number of bytes of host memory used
host_op_rate                                   159718                       # Simulator op (including micro ops) rate (op/s)
host_seconds                                    68.78                       # Real time elapsed on the host
host_tick_rate                               44798544                       # Simulator tick rate (ticks/s)
sim_freq                                 1000000000000                       # Frequency of simulated ticks
sim_insts                                     9618678                       # Number of instructions simulated
sim_ops                                      10985031                       # Number of ops (including micro ops) simulated
sim_seconds                                  0.003081                       # Number of seconds simulated
sim_ticks                                  3081149500                       # Number of ticks simulated
system.cpu.branchPred.BTBCorrect                    0                       # Number of correct BTB predictions (this stat may not work properly.
system.cpu.branchPred.BTBHitPct             99.317986                       # BTB Hit Percentage
system.cpu.branchPred.BTBHits                 1124658                       # Number of BTB hits
system.cpu.branchPred.BTBLookups              1132381                       # Number of BTB lookups
system.cpu.branchPred.RASInCorrect                 27                       # Number of incorrect RAS predictions.
system.cpu.branchPred.condIncorrect             27473                       # Number of conditional branches incorrect
system.cpu.branchPred.condPredicted           1718709                       # Number of conditional branches predicted
system.cpu.branchPred.indirectHits              78396                       # Number of indirect target hits.
system.cpu.branchPred.indirectLookups           80163                       # Number of indirect predictor lookups.
system.cpu.branchPred.indirectMisses             1767                       # Number of indirect misses.
system.cpu.branchPred.lookups                 2622931                       # Number of BP lookups
system.cpu.branchPred.usedRAS                  347663                       # Number of times the RAS was used to get a target.
system.cpu.branchPredindirectMispredicted          648                       # Number of mispredicted indirect branches.
system.cpu.cc_regfile_reads                   4476022                       # number of cc regfile reads
system.cpu.cc_regfile_writes                  3677873                       # number of cc regfile writes
system.cpu.commit.amos                              0                       # Number of atomic instructions committed
system.cpu.commit.branchMispredicts             24622                       # The number of times a branch was mispredicted
system.cpu.commit.branches                    2418242                       # Number of branches committed
system.cpu.commit.bw_lim_events                561639                       # number cycles where commit BW limit reached
system.cpu.commit.commitNonSpecStalls             329                       # The number of times commit has been forced to stall to communicate backwards
system.cpu.commit.commitSquashedInsts          950629                       # The number of squashed insts skipped by commit
system.cpu.commit.committedInsts              9622808                       # Number of instructions committed
system.cpu.commit.committedOps               10989161                       # Number of ops (including micro ops) committed
system.cpu.commit.committed_per_cycle::samples      5715898                       # Number of insts commited each cycle
system.cpu.commit.committed_per_cycle::mean     1.922561                       # Number of insts commited each cycle
system.cpu.commit.committed_per_cycle::stdev     2.588982                       # Number of insts commited each cycle
system.cpu.commit.committed_per_cycle::underflows            0      0.00%      0.00% # Number of insts commited each cycle
system.cpu.commit.committed_per_cycle::0      2626460     45.95%     45.95% # Number of insts commited each cycle
system.cpu.commit.committed_per_cycle::1       911826     15.95%     61.90% # Number of insts commited each cycle
system.cpu.commit.committed_per_cycle::2       556247      9.73%     71.63% # Number of insts commited each cycle
system.cpu.commit.committed_per_cycle::3       405033      7.09%     78.72% # Number of insts commited each cycle
system.cpu.commit.committed_per_cycle::4       232486      4.07%     82.79% # Number of insts commited each cycle
system.cpu.commit.committed_per_cycle::5       239494      4.19%     86.98% # Number of insts commited each cycle
system.cpu.commit.committed_per_cycle::6       149775      2.62%     89.60% # Number of insts commited each cycle
system.cpu.commit.committed_per_cycle::7        32938      0.58%     90.17% # Number of insts commited each cycle
system.cpu.commit.committed_per_cycle::8       561639      9.83%    100.00% # Number of insts commited each cycle
system.cpu.commit.committed_per_cycle::overflows            0      0.00%    100.00% # Number of insts commited each cycle
system.cpu.commit.committed_per_cycle::min_value            0                       # Number of insts commited each cycle
system.cpu.commit.committed_per_cycle::max_value            8                       # Number of insts commited each cycle
system.cpu.commit.committed_per_cycle::total      5715898                       # Number of insts commited each cycle
system.cpu.commit.fp_insts                          0                       # Number of committed floating point instructions.
system.cpu.commit.function_calls               322766                       # Number of function calls committed.
system.cpu.commit.int_insts                   9549744                       # Number of committed integer instructions.
system.cpu.commit.loads                       1247692                       # Number of loads committed
system.cpu.commit.membars                         270                       # Number of memory barriers committed
system.cpu.commit.op_class_0::No_OpClass          589      0.01%      0.01% # Class of committed instruction
system.cpu.commit.op_class_0::IntAlu          8387352     76.32%     76.33% # Class of committed instruction
system.cpu.commit.op_class_0::IntMult           68608      0.62%     76.95% # Class of committed instruction
system.cpu.commit.op_class_0::IntDiv                9      0.00%     76.95% # Class of committed instruction
system.cpu.commit.op_class_0::FloatAdd           7468      0.07%     77.02% # Class of committed instruction
system.cpu.commit.op_class_0::FloatCmp           9555      0.09%     77.11% # Class of committed instruction
system.cpu.commit.op_class_0::FloatCvt          48762      0.44%     77.55% # Class of committed instruction
system.cpu.commit.op_class_0::FloatMult         43570      0.40%     77.95% # Class of committed instruction
system.cpu.commit.op_class_0::FloatMultAcc        20577      0.19%     78.14% # Class of committed instruction
system.cpu.commit.op_class_0::FloatDiv          20138      0.18%     78.32% # Class of committed instruction
system.cpu.commit.op_class_0::FloatMisc         29626      0.27%     78.59% # Class of committed instruction
system.cpu.commit.op_class_0::FloatSqrt          2058      0.02%     78.61% # Class of committed instruction
system.cpu.commit.op_class_0::SimdAdd            1298      0.01%     78.62% # Class of committed instruction
system.cpu.commit.op_class_0::SimdAddAcc            0      0.00%     78.62% # Class of committed instruction
system.cpu.commit.op_class_0::SimdAlu            3092      0.03%     78.65% # Class of committed instruction
system.cpu.commit.op_class_0::SimdCmp            2365      0.02%     78.67% # Class of committed instruction
system.cpu.commit.op_class_0::SimdCvt               5      0.00%     78.67% # Class of committed instruction
system.cpu.commit.op_class_0::SimdMisc           1936      0.02%     78.69% # Class of committed instruction
system.cpu.commit.op_class_0::SimdMult              0      0.00%     78.69% # Class of committed instruction
system.cpu.commit.op_class_0::SimdMultAcc            0      0.00%     78.69% # Class of committed instruction
system.cpu.commit.op_class_0::SimdShift             0      0.00%     78.69% # Class of committed instruction
system.cpu.commit.op_class_0::SimdShiftAcc            0      0.00%     78.69% # Class of committed instruction
system.cpu.commit.op_class_0::SimdDiv               0      0.00%     78.69% # Class of committed instruction
system.cpu.commit.op_class_0::SimdSqrt              0      0.00%     78.69% # Class of committed instruction
system.cpu.commit.op_class_0::SimdFloatAdd            0      0.00%     78.69% # Class of committed instruction
system.cpu.commit.op_class_0::SimdFloatAlu            0      0.00%     78.69% # Class of committed instruction
system.cpu.commit.op_class_0::SimdFloatCmp            0      0.00%     78.69% # Class of committed instruction
system.cpu.commit.op_class_0::SimdFloatCvt            0      0.00%     78.69% # Class of committed instruction
system.cpu.commit.op_class_0::SimdFloatDiv            0      0.00%     78.69% # Class of committed instruction
system.cpu.commit.op_class_0::SimdFloatMisc            0      0.00%     78.69% # Class of committed instruction
system.cpu.commit.op_class_0::SimdFloatMult            0      0.00%     78.69% # Class of committed instruction
system.cpu.commit.op_class_0::SimdFloatMultAcc            0      0.00%     78.69% # Class of committed instruction
system.cpu.commit.op_class_0::SimdFloatSqrt            0      0.00%     78.69% # Class of committed instruction
system.cpu.commit.op_class_0::SimdReduceAdd            0      0.00%     78.69% # Class of committed instruction
system.cpu.commit.op_class_0::SimdReduceAlu            0      0.00%     78.69% # Class of committed instruction
system.cpu.commit.op_class_0::SimdReduceCmp            0      0.00%     78.69% # Class of committed instruction
system.cpu.commit.op_class_0::SimdFloatReduceAdd            0      0.00%     78.69% # Class of committed instruction
system.cpu.commit.op_class_0::SimdFloatReduceCmp            0      0.00%     78.69% # Class of committed instruction
system.cpu.commit.op_class_0::SimdAes               0      0.00%     78.69% # Class of committed instruction
system.cpu.commit.op_class_0::SimdAesMix            0      0.00%     78.69% # Class of committed instruction
system.cpu.commit.op_class_0::SimdSha1Hash            0      0.00%     78.69% # Class of committed instruction
system.cpu.commit.op_class_0::SimdSha1Hash2            0      0.00%     78.69% # Class of committed instruction
system.cpu.commit.op_class_0::SimdSha256Hash            0      0.00%     78.69% # Class of committed instruction
system.cpu.commit.op_class_0::SimdSha256Hash2            0      0.00%     78.69% # Class of committed instruction
system.cpu.commit.op_class_0::SimdShaSigma2            0      0.00%     78.69% # Class of committed instruction
system.cpu.commit.op_class_0::SimdShaSigma3            0      0.00%     78.69% # Class of committed instruction
system.cpu.commit.op_class_0::SimdPredAlu            0      0.00%     78.69% # Class of committed instruction
system.cpu.commit.op_class_0::MemRead         1247692     11.35%     90.04% # Class of committed instruction
system.cpu.commit.op_class_0::MemWrite        1094461      9.96%    100.00% # Class of committed instruction
system.cpu.commit.op_class_0::FloatMemRead            0      0.00%    100.00% # Class of committed instruction
system.cpu.commit.op_class_0::FloatMemWrite            0      0.00%    100.00% # Class of committed instruction
system.cpu.commit.op_class_0::IprAccess             0      0.00%    100.00% # Class of committed instruction
system.cpu.commit.op_class_0::InstPrefetch            0      0.00%    100.00% # Class of committed instruction
system.cpu.commit.op_class_0::total          10989161                       # Class of committed instruction
system.cpu.commit.refs                        2342153                       # Number of memory references committed
system.cpu.commit.swp_count                         0                       # Number of s/w prefetches committed
system.cpu.commit.vec_insts                    256840                       # Number of committed Vector instructions.
system.cpu.committedInsts                     9618678                       # Number of Instructions Simulated
system.cpu.committedOps                      10985031                       # Number of Ops (including micro ops) Simulated
system.cpu.cpi                               0.640660                       # CPI: Cycles Per Instruction
system.cpu.cpi_total                         0.640660                       # CPI: Total CPI of All Threads
system.cpu.decode.BlockedCycles               1191128                       # Number of cycles decode is blocked
system.cpu.decode.BranchMispred                  2909                       # Number of times decode detected a branch misprediction
system.cpu.decode.BranchResolved              1117178                       # Number of times decode resolved a branch
system.cpu.decode.DecodedInsts               12120302                       # Number of instructions handled by decode
system.cpu.decode.IdleCycles                  2180062                       # Number of cycles decode is idle
system.cpu.decode.RunCycles                   2306064                       # Number of cycles decode is running
system.cpu.decode.SquashCycles                  24969                       # Number of cycles decode is squashing
system.cpu.decode.SquashedInsts                  9928                       # Number of squashed instructions handled by decode
system.cpu.decode.UnblockCycles                144475                       # Number of cycles decode is unblocking
system.cpu.dtb.accesses                             0                       # DTB accesses
system.cpu.dtb.align_faults                         0                       # Number of TLB faults due to alignment restrictions
system.cpu.dtb.domain_faults                        0                       # Number of TLB faults due to domain restrictions
system.cpu.dtb.flush_entries                        0                       # Number of entries that have been flushed from TLB
system.cpu.dtb.flush_tlb                            0                       # Number of times complete TLB was flushed
system.cpu.dtb.flush_tlb_asid                       0                       # Number of times TLB was flushed by ASID
system.cpu.dtb.flush_tlb_mva                        0                       # Number of times TLB was flushed by MVA
system.cpu.dtb.flush_tlb_mva_asid                   0                       # Number of times TLB was flushed by MVA & ASID
system.cpu.dtb.hits                                 0                       # DTB hits
system.cpu.dtb.inst_accesses                        0                       # ITB inst accesses
system.cpu.dtb.inst_hits                            0                       # ITB inst hits
system.cpu.dtb.inst_misses                          0                       # ITB inst misses
system.cpu.dtb.misses                               0                       # DTB misses
system.cpu.dtb.perms_faults                         0                       # Number of TLB faults due to permissions restrictions
system.cpu.dtb.prefetch_faults                      0                       # Number of TLB faults due to prefetch
system.cpu.dtb.read_accesses                        0                       # DTB read accesses
system.cpu.dtb.read_hits                            0                       # DTB read hits
system.cpu.dtb.read_misses                          0                       # DTB read misses
system.cpu.dtb.stage2_mmu.stage2_tlb.accesses            0                       # DTB accesses
system.cpu.dtb.stage2_mmu.stage2_tlb.align_faults            0                       # Number of TLB faults due to alignment restrictions
system.cpu.dtb.stage2_mmu.stage2_tlb.domain_faults            0                       # Number of TLB faults due to domain restrictions
system.cpu.dtb.stage2_mmu.stage2_tlb.flush_entries            0                       # Number of entries that have been flushed from TLB
system.cpu.dtb.stage2_mmu.stage2_tlb.flush_tlb            0                       # Number of times complete TLB was flushed
system.cpu.dtb.stage2_mmu.stage2_tlb.flush_tlb_asid            0                       # Number of times TLB was flushed by ASID
system.cpu.dtb.stage2_mmu.stage2_tlb.flush_tlb_mva            0                       # Number of times TLB was flushed by MVA
system.cpu.dtb.stage2_mmu.stage2_tlb.flush_tlb_mva_asid            0                       # Number of times TLB was flushed by MVA & ASID
system.cpu.dtb.stage2_mmu.stage2_tlb.hits            0                       # DTB hits
system.cpu.dtb.stage2_mmu.stage2_tlb.inst_accesses            0                       # ITB inst accesses
system.cpu.dtb.stage2_mmu.stage2_tlb.inst_hits            0                       # ITB inst hits
system.cpu.dtb.stage2_mmu.stage2_tlb.inst_misses            0                       # ITB inst misses
system.cpu.dtb.stage2_mmu.stage2_tlb.misses            0                       # DTB misses
system.cpu.dtb.stage2_mmu.stage2_tlb.perms_faults            0                       # Number of TLB faults due to permissions restrictions
system.cpu.dtb.stage2_mmu.stage2_tlb.prefetch_faults            0                       # Number of TLB faults due to prefetch
system.cpu.dtb.stage2_mmu.stage2_tlb.read_accesses            0                       # DTB read accesses
system.cpu.dtb.stage2_mmu.stage2_tlb.read_hits            0                       # DTB read hits
system.cpu.dtb.stage2_mmu.stage2_tlb.read_misses            0                       # DTB read misses
system.cpu.dtb.stage2_mmu.stage2_tlb.walker.walkRequestOrigin_Requested::Data            0                       # Table walker requests started/completed, data/inst
system.cpu.dtb.stage2_mmu.stage2_tlb.walker.walkRequestOrigin_Requested::Inst            0                       # Table walker requests started/completed, data/inst
system.cpu.dtb.stage2_mmu.stage2_tlb.walker.walkRequestOrigin_Requested::total            0                       # Table walker requests started/completed, data/inst
system.cpu.dtb.stage2_mmu.stage2_tlb.walker.walkRequestOrigin_Completed::Data            0                       # Table walker requests started/completed, data/inst
system.cpu.dtb.stage2_mmu.stage2_tlb.walker.walkRequestOrigin_Completed::Inst            0                       # Table walker requests started/completed, data/inst
system.cpu.dtb.stage2_mmu.stage2_tlb.walker.walkRequestOrigin_Completed::total            0                       # Table walker requests started/completed, data/inst
system.cpu.dtb.stage2_mmu.stage2_tlb.walker.walkRequestOrigin::total            0                       # Table walker requests started/completed, data/inst
system.cpu.dtb.stage2_mmu.stage2_tlb.walker.walks            0                       # Table walker walks requested
system.cpu.dtb.stage2_mmu.stage2_tlb.write_accesses            0                       # DTB write accesses
system.cpu.dtb.stage2_mmu.stage2_tlb.write_hits            0                       # DTB write hits
system.cpu.dtb.stage2_mmu.stage2_tlb.write_misses            0                       # DTB write misses
system.cpu.dtb.walker.walkRequestOrigin_Requested::Data            0                       # Table walker requests started/completed, data/inst
system.cpu.dtb.walker.walkRequestOrigin_Requested::Inst            0                       # Table walker requests started/completed, data/inst
system.cpu.dtb.walker.walkRequestOrigin_Requested::total            0                       # Table walker requests started/completed, data/inst
system.cpu.dtb.walker.walkRequestOrigin_Completed::Data            0                       # Table walker requests started/completed, data/inst
system.cpu.dtb.walker.walkRequestOrigin_Completed::Inst            0                       # Table walker requests started/completed, data/inst
system.cpu.dtb.walker.walkRequestOrigin_Completed::total            0                       # Table walker requests started/completed, data/inst
system.cpu.dtb.walker.walkRequestOrigin::total            0                       # Table walker requests started/completed, data/inst
system.cpu.dtb.walker.walks                         0                       # Table walker walks requested
system.cpu.dtb.write_accesses                       0                       # DTB write accesses
system.cpu.dtb.write_hits                           0                       # DTB write hits
system.cpu.dtb.write_misses                         0                       # DTB write misses
system.cpu.fetch.Branches                     2622931                       # Number of branches that fetch encountered
system.cpu.fetch.CacheLines                   1945071                       # Number of cache lines fetched
system.cpu.fetch.Cycles                       3406064                       # Number of cycles fetch has run and was not squashing or blocked
system.cpu.fetch.IcacheSquashes                  9201                       # Number of outstanding Icache misses that were squashed
system.cpu.fetch.Insts                       10782758                       # Number of instructions fetch has processed
system.cpu.fetch.SquashCycles                   55640                       # Number of cycles fetch has spent squashing
system.cpu.fetch.branchRate                  0.425642                       # Number of branch fetches per cycle
system.cpu.fetch.icacheStallCycles            2412814                       # Number of cycles fetch is stalled on an Icache miss
system.cpu.fetch.predictedBranches            1550717                       # Number of branches that fetch has predicted taken
system.cpu.fetch.rate                        1.749794                       # Number of inst fetches per cycle
system.cpu.fetch.rateDist::samples            5846698                       # Number of instructions fetched each cycle (Total)
system.cpu.fetch.rateDist::mean              2.102226                       # Number of instructions fetched each cycle (Total)
system.cpu.fetch.rateDist::stdev             2.808339                       # Number of instructions fetched each cycle (Total)
system.cpu.fetch.rateDist::underflows               0      0.00%      0.00% # Number of instructions fetched each cycle (Total)
system.cpu.fetch.rateDist::0                  3202884     54.78%     54.78% # Number of instructions fetched each cycle (Total)
system.cpu.fetch.rateDist::1                   177792      3.04%     57.82% # Number of instructions fetched each cycle (Total)
system.cpu.fetch.rateDist::2                   480120      8.21%     66.03% # Number of instructions fetched each cycle (Total)
system.cpu.fetch.rateDist::3                   448941      7.68%     73.71% # Number of instructions fetched each cycle (Total)
system.cpu.fetch.rateDist::4                   163442      2.80%     76.51% # Number of instructions fetched each cycle (Total)
system.cpu.fetch.rateDist::5                   381155      6.52%     83.03% # Number of instructions fetched each cycle (Total)
system.cpu.fetch.rateDist::6                   269807      4.61%     87.64% # Number of instructions fetched each cycle (Total)
system.cpu.fetch.rateDist::7                   152613      2.61%     90.25% # Number of instructions fetched each cycle (Total)
system.cpu.fetch.rateDist::8                   569944      9.75%    100.00% # Number of instructions fetched each cycle (Total)
system.cpu.fetch.rateDist::overflows                0      0.00%    100.00% # Number of instructions fetched each cycle (Total)
system.cpu.fetch.rateDist::min_value                0                       # Number of instructions fetched each cycle (Total)
system.cpu.fetch.rateDist::max_value                8                       # Number of instructions fetched each cycle (Total)
system.cpu.fetch.rateDist::total              5846698                       # Number of instructions fetched each cycle (Total)
system.cpu.icache.prefetcher.num_hwpf_issued       187774                       # number of hwpf issued
system.cpu.icache.prefetcher.pfBufferHit       284249                       # number of redundant prefetches already in prefetch queue
system.cpu.icache.prefetcher.pfIdentified       537561                       # number of prefetch candidates identified
system.cpu.icache.prefetcher.pfInCache              0                       # number of redundant prefetches already in cache/mshr dropped
system.cpu.icache.prefetcher.pfRemovedFull         9793                       # number of prefetches dropped due to prefetch queue size
system.cpu.icache.prefetcher.pfSpanPage      10399240                       # number of prefetches that crossed the page
system.cpu.idleCycles                          315602                       # Total number of cycles that the CPU has spent unscheduled due to idling
system.cpu.iew.branchMispredicts                27053                       # Number of branch mispredicts detected at execute
system.cpu.iew.exec_branches                  2499341                       # Number of branches executed
system.cpu.iew.exec_nop                          6250                       # number of nop insts executed
system.cpu.iew.exec_rate                     1.899925                       # Inst execution rate
system.cpu.iew.exec_refs                      2533215                       # number of memory reference insts executed
system.cpu.iew.exec_stores                    1155835                       # Number of stores executed
system.cpu.iew.exec_swp                             0                       # number of swp insts executed
system.cpu.iew.iewBlockCycles                  245883                       # Number of cycles IEW is blocking
system.cpu.iew.iewDispLoadInsts               1336985                       # Number of dispatched load instructions
system.cpu.iew.iewDispNonSpecInsts                407                       # Number of dispatched non-speculative instructions
system.cpu.iew.iewDispSquashedInsts              3475                       # Number of squashed instructions skipped by dispatch
system.cpu.iew.iewDispStoreInsts              1210556                       # Number of dispatched store instructions
system.cpu.iew.iewDispatchedInsts            11940570                       # Number of instructions dispatched to IQ
system.cpu.iew.iewExecLoadInsts               1377380                       # Number of load instructions executed
system.cpu.iew.iewExecSquashedInsts             43119                       # Number of squashed instructions skipped in execute
system.cpu.iew.iewExecutedInsts              11707908                       # Number of executed instructions
system.cpu.iew.iewIQFullEvents                   1667                       # Number of times the IQ has become full, causing a stall
system.cpu.iew.iewIdleCycles                        0                       # Number of cycles IEW is idle
system.cpu.iew.iewLSQFullEvents                 18174                       # Number of times the LSQ has become full, causing a stall
system.cpu.iew.iewSquashCycles                  24969                       # Number of cycles IEW is squashing
system.cpu.iew.iewUnblockCycles                 21500                       # Number of cycles IEW is unblocking
system.cpu.iew.lsq.thread0.blockedLoads             0                       # Number of blocked loads due to partial load-store forwarding
system.cpu.iew.lsq.thread0.cacheBlocked           271                       # Number of times an access to memory failed due to the cache being blocked
system.cpu.iew.lsq.thread0.forwLoads            36850                       # Number of loads that had data forwarded from stores
system.cpu.iew.lsq.thread0.ignoredResponses           99                       # Number of memory responses ignored because the instruction is squashed
system.cpu.iew.lsq.thread0.invAddrLoads             0                       # Number of loads ignored due to an invalid address
system.cpu.iew.lsq.thread0.invAddrSwpfs             0                       # Number of software prefetches ignored due to an invalid address
system.cpu.iew.lsq.thread0.memOrderViolation          288                       # Number of memory ordering violations
system.cpu.iew.lsq.thread0.rescheduledLoads        68628                       # Number of loads that were rescheduled
system.cpu.iew.lsq.thread0.squashedLoads        89293                       # Number of loads squashed
system.cpu.iew.lsq.thread0.squashedStores       116095                       # Number of stores squashed
system.cpu.iew.memOrderViolationEvents            288                       # Number of memory order violations
system.cpu.iew.predictedNotTakenIncorrect        17295                       # Number of branches that were predicted not taken incorrectly
system.cpu.iew.predictedTakenIncorrect           9758                       # Number of branches that were predicted taken incorrectly
system.cpu.iew.wb_consumers                  11183855                       # num instructions consuming a value
system.cpu.iew.wb_count                      11620661                       # cumulative count of insts written-back
system.cpu.iew.wb_fanout                     0.520399                       # average fanout of values written-back
system.cpu.iew.wb_producers                   5820066                       # num instructions producing a value
system.cpu.iew.wb_rate                       1.885767                       # insts written-back per cycle
system.cpu.iew.wb_sent                       11630863                       # cumulative count of insts sent to commit
system.cpu.int_regfile_reads                 13146002                       # number of integer regfile reads
system.cpu.int_regfile_writes                 8474101                       # number of integer regfile writes
system.cpu.ipc                               1.560891                       # IPC: Instructions Per Cycle
system.cpu.ipc_total                         1.560891                       # IPC: Total IPC of All Threads
system.cpu.iq.FU_type_0::No_OpClass               600      0.01%      0.01% # Type of FU issued
system.cpu.iq.FU_type_0::IntAlu               8887139     75.63%     75.63% # Type of FU issued
system.cpu.iq.FU_type_0::IntMult                90702      0.77%     76.41% # Type of FU issued
system.cpu.iq.FU_type_0::IntDiv                    14      0.00%     76.41% # Type of FU issued
system.cpu.iq.FU_type_0::FloatAdd                7486      0.06%     76.47% # Type of FU issued
system.cpu.iq.FU_type_0::FloatCmp               11867      0.10%     76.57% # Type of FU issued
system.cpu.iq.FU_type_0::FloatCvt               56284      0.48%     77.05% # Type of FU issued
system.cpu.iq.FU_type_0::FloatMult              48928      0.42%     77.47% # Type of FU issued
system.cpu.iq.FU_type_0::FloatMultAcc           20586      0.18%     77.64% # Type of FU issued
system.cpu.iq.FU_type_0::FloatDiv               23874      0.20%     77.84% # Type of FU issued
system.cpu.iq.FU_type_0::FloatMisc              39747      0.34%     78.18% # Type of FU issued
system.cpu.iq.FU_type_0::FloatSqrt               3207      0.03%     78.21% # Type of FU issued
system.cpu.iq.FU_type_0::SimdAdd                 1335      0.01%     78.22% # Type of FU issued
system.cpu.iq.FU_type_0::SimdAddAcc                 0      0.00%     78.22% # Type of FU issued
system.cpu.iq.FU_type_0::SimdAlu                 3142      0.03%     78.25% # Type of FU issued
system.cpu.iq.FU_type_0::SimdCmp                 2405      0.02%     78.27% # Type of FU issued
system.cpu.iq.FU_type_0::SimdCvt                    5      0.00%     78.27% # Type of FU issued
system.cpu.iq.FU_type_0::SimdMisc                1977      0.02%     78.29% # Type of FU issued
system.cpu.iq.FU_type_0::SimdMult                   0      0.00%     78.29% # Type of FU issued
system.cpu.iq.FU_type_0::SimdMultAcc                0      0.00%     78.29% # Type of FU issued
system.cpu.iq.FU_type_0::SimdShift                  0      0.00%     78.29% # Type of FU issued
system.cpu.iq.FU_type_0::SimdShiftAcc               0      0.00%     78.29% # Type of FU issued
system.cpu.iq.FU_type_0::SimdDiv                    0      0.00%     78.29% # Type of FU issued
system.cpu.iq.FU_type_0::SimdSqrt                   0      0.00%     78.29% # Type of FU issued
system.cpu.iq.FU_type_0::SimdFloatAdd               0      0.00%     78.29% # Type of FU issued
system.cpu.iq.FU_type_0::SimdFloatAlu               0      0.00%     78.29% # Type of FU issued
system.cpu.iq.FU_type_0::SimdFloatCmp               0      0.00%     78.29% # Type of FU issued
system.cpu.iq.FU_type_0::SimdFloatCvt               0      0.00%     78.29% # Type of FU issued
system.cpu.iq.FU_type_0::SimdFloatDiv               0      0.00%     78.29% # Type of FU issued
system.cpu.iq.FU_type_0::SimdFloatMisc              0      0.00%     78.29% # Type of FU issued
system.cpu.iq.FU_type_0::SimdFloatMult              0      0.00%     78.29% # Type of FU issued
system.cpu.iq.FU_type_0::SimdFloatMultAcc            0      0.00%     78.29% # Type of FU issued
system.cpu.iq.FU_type_0::SimdFloatSqrt              0      0.00%     78.29% # Type of FU issued
system.cpu.iq.FU_type_0::SimdReduceAdd              0      0.00%     78.29% # Type of FU issued
system.cpu.iq.FU_type_0::SimdReduceAlu              0      0.00%     78.29% # Type of FU issued
system.cpu.iq.FU_type_0::SimdReduceCmp              0      0.00%     78.29% # Type of FU issued
system.cpu.iq.FU_type_0::SimdFloatReduceAdd            0      0.00%     78.29% # Type of FU issued
system.cpu.iq.FU_type_0::SimdFloatReduceCmp            0      0.00%     78.29% # Type of FU issued
system.cpu.iq.FU_type_0::SimdAes                    0      0.00%     78.29% # Type of FU issued
system.cpu.iq.FU_type_0::SimdAesMix                 0      0.00%     78.29% # Type of FU issued
system.cpu.iq.FU_type_0::SimdSha1Hash               0      0.00%     78.29% # Type of FU issued
system.cpu.iq.FU_type_0::SimdSha1Hash2              0      0.00%     78.29% # Type of FU issued
system.cpu.iq.FU_type_0::SimdSha256Hash             0      0.00%     78.29% # Type of FU issued
system.cpu.iq.FU_type_0::SimdSha256Hash2            0      0.00%     78.29% # Type of FU issued
system.cpu.iq.FU_type_0::SimdShaSigma2              0      0.00%     78.29% # Type of FU issued
system.cpu.iq.FU_type_0::SimdShaSigma3              0      0.00%     78.29% # Type of FU issued
system.cpu.iq.FU_type_0::SimdPredAlu                0      0.00%     78.29% # Type of FU issued
system.cpu.iq.FU_type_0::MemRead              1386728     11.80%     90.09% # Type of FU issued
system.cpu.iq.FU_type_0::MemWrite             1165001      9.91%    100.00% # Type of FU issued
system.cpu.iq.FU_type_0::FloatMemRead               0      0.00%    100.00% # Type of FU issued
system.cpu.iq.FU_type_0::FloatMemWrite              0      0.00%    100.00% # Type of FU issued
system.cpu.iq.FU_type_0::IprAccess                  0      0.00%    100.00% # Type of FU issued
system.cpu.iq.FU_type_0::InstPrefetch               0      0.00%    100.00% # Type of FU issued
system.cpu.iq.FU_type_0::total               11751027                       # Type of FU issued
system.cpu.iq.fp_alu_accesses                       0                       # Number of floating point alu accesses
system.cpu.iq.fp_inst_queue_reads                   0                       # Number of floating instruction queue reads
system.cpu.iq.fp_inst_queue_wakeup_accesses            0                       # Number of floating instruction queue wakeup accesses
system.cpu.iq.fp_inst_queue_writes                  0                       # Number of floating instruction queue writes
system.cpu.iq.fu_busy_cnt                      118704                       # FU busy when requested
system.cpu.iq.fu_busy_rate                   0.010102                       # FU busy rate (busy events/executed inst)
system.cpu.iq.fu_full::No_OpClass                   0      0.00%      0.00% # attempts to use FU when none available
system.cpu.iq.fu_full::IntAlu                   37105     31.26%     31.26% # attempts to use FU when none available
system.cpu.iq.fu_full::IntMult                     15      0.01%     31.27% # attempts to use FU when none available
system.cpu.iq.fu_full::IntDiv                       0      0.00%     31.27% # attempts to use FU when none available
system.cpu.iq.fu_full::FloatAdd                     0      0.00%     31.27% # attempts to use FU when none available
system.cpu.iq.fu_full::FloatCmp                     0      0.00%     31.27% # attempts to use FU when none available
system.cpu.iq.fu_full::FloatCvt                     0      0.00%     31.27% # attempts to use FU when none available
system.cpu.iq.fu_full::FloatMult                15250     12.85%     44.12% # attempts to use FU when none available
system.cpu.iq.fu_full::FloatMultAcc               473      0.40%     44.52% # attempts to use FU when none available
system.cpu.iq.fu_full::FloatDiv                    11      0.01%     44.53% # attempts to use FU when none available
system.cpu.iq.fu_full::FloatMisc                10903      9.19%     53.71% # attempts to use FU when none available
system.cpu.iq.fu_full::FloatSqrt                    0      0.00%     53.71% # attempts to use FU when none available
system.cpu.iq.fu_full::SimdAdd                      0      0.00%     53.71% # attempts to use FU when none available
system.cpu.iq.fu_full::SimdAddAcc                   0      0.00%     53.71% # attempts to use FU when none available
system.cpu.iq.fu_full::SimdAlu                     10      0.01%     53.72% # attempts to use FU when none available
system.cpu.iq.fu_full::SimdCmp                      8      0.01%     53.73% # attempts to use FU when none available
system.cpu.iq.fu_full::SimdCvt                      0      0.00%     53.73% # attempts to use FU when none available
system.cpu.iq.fu_full::SimdMisc                     0      0.00%     53.73% # attempts to use FU when none available
system.cpu.iq.fu_full::SimdMult                     0      0.00%     53.73% # attempts to use FU when none available
system.cpu.iq.fu_full::SimdMultAcc                  0      0.00%     53.73% # attempts to use FU when none available
system.cpu.iq.fu_full::SimdShift                    0      0.00%     53.73% # attempts to use FU when none available
system.cpu.iq.fu_full::SimdShiftAcc                 0      0.00%     53.73% # attempts to use FU when none available
system.cpu.iq.fu_full::SimdDiv                      0      0.00%     53.73% # attempts to use FU when none available
system.cpu.iq.fu_full::SimdSqrt                     0      0.00%     53.73% # attempts to use FU when none available
system.cpu.iq.fu_full::SimdFloatAdd                 0      0.00%     53.73% # attempts to use FU when none available
system.cpu.iq.fu_full::SimdFloatAlu                 0      0.00%     53.73% # attempts to use FU when none available
system.cpu.iq.fu_full::SimdFloatCmp                 0      0.00%     53.73% # attempts to use FU when none available
system.cpu.iq.fu_full::SimdFloatCvt                 0      0.00%     53.73% # attempts to use FU when none available
system.cpu.iq.fu_full::SimdFloatDiv                 0      0.00%     53.73% # attempts to use FU when none available
system.cpu.iq.fu_full::SimdFloatMisc                0      0.00%     53.73% # attempts to use FU when none available
system.cpu.iq.fu_full::SimdFloatMult                0      0.00%     53.73% # attempts to use FU when none available
system.cpu.iq.fu_full::SimdFloatMultAcc             0      0.00%     53.73% # attempts to use FU when none available
system.cpu.iq.fu_full::SimdFloatSqrt                0      0.00%     53.73% # attempts to use FU when none available
system.cpu.iq.fu_full::SimdReduceAdd                0      0.00%     53.73% # attempts to use FU when none available
system.cpu.iq.fu_full::SimdReduceAlu                0      0.00%     53.73% # attempts to use FU when none available
system.cpu.iq.fu_full::SimdReduceCmp                0      0.00%     53.73% # attempts to use FU when none available
system.cpu.iq.fu_full::SimdFloatReduceAdd            0      0.00%     53.73% # attempts to use FU when none available
system.cpu.iq.fu_full::SimdFloatReduceCmp            0      0.00%     53.73% # attempts to use FU when none available
system.cpu.iq.fu_full::SimdAes                      0      0.00%     53.73% # attempts to use FU when none available
system.cpu.iq.fu_full::SimdAesMix                   0      0.00%     53.73% # attempts to use FU when none available
system.cpu.iq.fu_full::SimdSha1Hash                 0      0.00%     53.73% # attempts to use FU when none available
system.cpu.iq.fu_full::SimdSha1Hash2                0      0.00%     53.73% # attempts to use FU when none available
system.cpu.iq.fu_full::SimdSha256Hash               0      0.00%     53.73% # attempts to use FU when none available
system.cpu.iq.fu_full::SimdSha256Hash2              0      0.00%     53.73% # attempts to use FU when none available
system.cpu.iq.fu_full::SimdShaSigma2                0      0.00%     53.73% # attempts to use FU when none available
system.cpu.iq.fu_full::SimdShaSigma3                0      0.00%     53.73% # attempts to use FU when none available
system.cpu.iq.fu_full::SimdPredAlu                  0      0.00%     53.73% # attempts to use FU when none available
system.cpu.iq.fu_full::MemRead                  22200     18.70%     72.43% # attempts to use FU when none available
system.cpu.iq.fu_full::MemWrite                 32729     27.57%    100.00% # attempts to use FU when none available
system.cpu.iq.fu_full::FloatMemRead                 0      0.00%    100.00% # attempts to use FU when none available
system.cpu.iq.fu_full::FloatMemWrite                0      0.00%    100.00% # attempts to use FU when none available
system.cpu.iq.fu_full::IprAccess                    0      0.00%    100.00% # attempts to use FU when none available
system.cpu.iq.fu_full::InstPrefetch                 0      0.00%    100.00% # attempts to use FU when none available
system.cpu.iq.int_alu_accesses               11552134                       # Number of integer alu accesses
system.cpu.iq.int_inst_queue_reads           28861700                       # Number of integer instruction queue reads
system.cpu.iq.int_inst_queue_wakeup_accesses     11332678                       # Number of integer instruction queue wakeup accesses
system.cpu.iq.int_inst_queue_writes          12437265                       # Number of integer instruction queue writes
system.cpu.iq.iqInstsAdded                   11933913                       # Number of instructions added to the IQ (excludes non-spec)
system.cpu.iq.iqInstsIssued                  11751027                       # Number of instructions issued
system.cpu.iq.iqNonSpecInstsAdded                 407                       # Number of non-speculative instructions added to the IQ
system.cpu.iq.iqSquashedInstsExamined          949288                       # Number of squashed instructions iterated over during squash; mainly for profiling
system.cpu.iq.iqSquashedInstsIssued              2129                       # Number of squashed instructions issued
system.cpu.iq.iqSquashedNonSpecRemoved             78                       # Number of squashed non-spec instructions that were removed
system.cpu.iq.iqSquashedOperandsExamined       688643                       # Number of squashed operands that are examined and possibly removed from graph
system.cpu.iq.issued_per_cycle::samples       5846698                       # Number of insts issued each cycle
system.cpu.iq.issued_per_cycle::mean         2.009857                       # Number of insts issued each cycle
system.cpu.iq.issued_per_cycle::stdev        2.032238                       # Number of insts issued each cycle
system.cpu.iq.issued_per_cycle::underflows            0      0.00%      0.00% # Number of insts issued each cycle
system.cpu.iq.issued_per_cycle::0             1770366     30.28%     30.28% # Number of insts issued each cycle
system.cpu.iq.issued_per_cycle::1             1209682     20.69%     50.97% # Number of insts issued each cycle
system.cpu.iq.issued_per_cycle::2              879323     15.04%     66.01% # Number of insts issued each cycle
system.cpu.iq.issued_per_cycle::3              783837     13.41%     79.42% # Number of insts issued each cycle
system.cpu.iq.issued_per_cycle::4              333014      5.70%     85.11% # Number of insts issued each cycle
system.cpu.iq.issued_per_cycle::5              393133      6.72%     91.84% # Number of insts issued each cycle
system.cpu.iq.issued_per_cycle::6              277918      4.75%     96.59% # Number of insts issued each cycle
system.cpu.iq.issued_per_cycle::7              129441      2.21%     98.80% # Number of insts issued each cycle
system.cpu.iq.issued_per_cycle::8               69984      1.20%    100.00% # Number of insts issued each cycle
system.cpu.iq.issued_per_cycle::overflows            0      0.00%    100.00% # Number of insts issued each cycle
system.cpu.iq.issued_per_cycle::min_value            0                       # Number of insts issued each cycle
system.cpu.iq.issued_per_cycle::max_value            8                       # Number of insts issued each cycle
system.cpu.iq.issued_per_cycle::total         5846698                       # Number of insts issued each cycle
system.cpu.iq.rate                           1.906922                       # Inst issue rate
system.cpu.iq.vec_alu_accesses                 316997                       # Number of vector alu accesses
system.cpu.iq.vec_inst_queue_reads             607885                       # Number of vector instruction queue reads
system.cpu.iq.vec_inst_queue_wakeup_accesses       287983                       # Number of vector instruction queue wakeup accesses
system.cpu.iq.vec_inst_queue_writes            446624                       # Number of vector instruction queue writes
system.cpu.itb.accesses                             0                       # DTB accesses
system.cpu.itb.align_faults                         0                       # Number of TLB faults due to alignment restrictions
system.cpu.itb.domain_faults                        0                       # Number of TLB faults due to domain restrictions
system.cpu.itb.flush_entries                        0                       # Number of entries that have been flushed from TLB
system.cpu.itb.flush_tlb                            0                       # Number of times complete TLB was flushed
system.cpu.itb.flush_tlb_asid                       0                       # Number of times TLB was flushed by ASID
system.cpu.itb.flush_tlb_mva                        0                       # Number of times TLB was flushed by MVA
system.cpu.itb.flush_tlb_mva_asid                   0                       # Number of times TLB was flushed by MVA & ASID
system.cpu.itb.hits                                 0                       # DTB hits
system.cpu.itb.inst_accesses                        0                       # ITB inst accesses
system.cpu.itb.inst_hits                            0                       # ITB inst hits
system.cpu.itb.inst_misses                          0                       # ITB inst misses
system.cpu.itb.misses                               0                       # DTB misses
system.cpu.itb.perms_faults                         0                       # Number of TLB faults due to permissions restrictions
system.cpu.itb.prefetch_faults                      0                       # Number of TLB faults due to prefetch
system.cpu.itb.read_accesses                        0                       # DTB read accesses
system.cpu.itb.read_hits                            0                       # DTB read hits
system.cpu.itb.read_misses                          0                       # DTB read misses
system.cpu.itb.stage2_mmu.stage2_tlb.accesses            0                       # DTB accesses
system.cpu.itb.stage2_mmu.stage2_tlb.align_faults            0                       # Number of TLB faults due to alignment restrictions
system.cpu.itb.stage2_mmu.stage2_tlb.domain_faults            0                       # Number of TLB faults due to domain restrictions
system.cpu.itb.stage2_mmu.stage2_tlb.flush_entries            0                       # Number of entries that have been flushed from TLB
system.cpu.itb.stage2_mmu.stage2_tlb.flush_tlb            0                       # Number of times complete TLB was flushed
system.cpu.itb.stage2_mmu.stage2_tlb.flush_tlb_asid            0                       # Number of times TLB was flushed by ASID
system.cpu.itb.stage2_mmu.stage2_tlb.flush_tlb_mva            0                       # Number of times TLB was flushed by MVA
system.cpu.itb.stage2_mmu.stage2_tlb.flush_tlb_mva_asid            0                       # Number of times TLB was flushed by MVA & ASID
system.cpu.itb.stage2_mmu.stage2_tlb.hits            0                       # DTB hits
system.cpu.itb.stage2_mmu.stage2_tlb.inst_accesses            0                       # ITB inst accesses
system.cpu.itb.stage2_mmu.stage2_tlb.inst_hits            0                       # ITB inst hits
system.cpu.itb.stage2_mmu.stage2_tlb.inst_misses            0                       # ITB inst misses
system.cpu.itb.stage2_mmu.stage2_tlb.misses            0                       # DTB misses
system.cpu.itb.stage2_mmu.stage2_tlb.perms_faults            0                       # Number of TLB faults due to permissions restrictions
system.cpu.itb.stage2_mmu.stage2_tlb.prefetch_faults            0                       # Number of TLB faults due to prefetch
system.cpu.itb.stage2_mmu.stage2_tlb.read_accesses            0                       # DTB read accesses
system.cpu.itb.stage2_mmu.stage2_tlb.read_hits            0                       # DTB read hits
system.cpu.itb.stage2_mmu.stage2_tlb.read_misses            0                       # DTB read misses
system.cpu.itb.stage2_mmu.stage2_tlb.walker.walkRequestOrigin_Requested::Data            0                       # Table walker requests started/completed, data/inst
system.cpu.itb.stage2_mmu.stage2_tlb.walker.walkRequestOrigin_Requested::Inst            0                       # Table walker requests started/completed, data/inst
system.cpu.itb.stage2_mmu.stage2_tlb.walker.walkRequestOrigin_Requested::total            0                       # Table walker requests started/completed, data/inst
system.cpu.itb.stage2_mmu.stage2_tlb.walker.walkRequestOrigin_Completed::Data            0                       # Table walker requests started/completed, data/inst
system.cpu.itb.stage2_mmu.stage2_tlb.walker.walkRequestOrigin_Completed::Inst            0                       # Table walker requests started/completed, data/inst
system.cpu.itb.stage2_mmu.stage2_tlb.walker.walkRequestOrigin_Completed::total            0                       # Table walker requests started/completed, data/inst
system.cpu.itb.stage2_mmu.stage2_tlb.walker.walkRequestOrigin::total            0                       # Table walker requests started/completed, data/inst
system.cpu.itb.stage2_mmu.stage2_tlb.walker.walks            0                       # Table walker walks requested
system.cpu.itb.stage2_mmu.stage2_tlb.write_accesses            0                       # DTB write accesses
system.cpu.itb.stage2_mmu.stage2_tlb.write_hits            0                       # DTB write hits
system.cpu.itb.stage2_mmu.stage2_tlb.write_misses            0                       # DTB write misses
system.cpu.itb.walker.walkRequestOrigin_Requested::Data            0                       # Table walker requests started/completed, data/inst
system.cpu.itb.walker.walkRequestOrigin_Requested::Inst            0                       # Table walker requests started/completed, data/inst
system.cpu.itb.walker.walkRequestOrigin_Requested::total            0                       # Table walker requests started/completed, data/inst
system.cpu.itb.walker.walkRequestOrigin_Completed::Data            0                       # Table walker requests started/completed, data/inst
system.cpu.itb.walker.walkRequestOrigin_Completed::Inst            0                       # Table walker requests started/completed, data/inst
system.cpu.itb.walker.walkRequestOrigin_Completed::total            0                       # Table walker requests started/completed, data/inst
system.cpu.itb.walker.walkRequestOrigin::total            0                       # Table walker requests started/completed, data/inst
system.cpu.itb.walker.walks                         0                       # Table walker walks requested
system.cpu.itb.write_accesses                       0                       # DTB write accesses
system.cpu.itb.write_hits                           0                       # DTB write hits
system.cpu.itb.write_misses                         0                       # DTB write misses
system.cpu.memDep0.conflictingLoads            113146                       # Number of conflicting loads.
system.cpu.memDep0.conflictingStores            99862                       # Number of conflicting stores.
system.cpu.memDep0.insertedLoads              1336985                       # Number of loads inserted to the mem dependence unit.
system.cpu.memDep0.insertedStores             1210556                       # Number of stores inserted to the mem dependence unit.
system.cpu.misc_regfile_reads                 8354743                       # number of misc regfile reads
system.cpu.misc_regfile_writes                 154088                       # number of misc regfile writes
system.cpu.numCycles                          6162300                       # number of cpu cycles simulated
system.cpu.numWorkItemsCompleted                    0                       # number of work items this cpu completed
system.cpu.numWorkItemsStarted                      0                       # number of work items this cpu started
system.cpu.rename.BlockCycles                  395877                       # Number of cycles rename is blocking
system.cpu.rename.CommittedMaps              11889111                       # Number of HB maps that are committed
system.cpu.rename.IQFullEvents                 215833                       # Number of times rename has blocked due to IQ full
system.cpu.rename.IdleCycles                  2241220                       # Number of cycles rename is idle
system.cpu.rename.LQFullEvents                   4758                       # Number of times rename has blocked due to LQ full
system.cpu.rename.ROBFullEvents                  8397                       # Number of times rename has blocked due to ROB full
system.cpu.rename.RenameLookups              19527300                       # Number of register rename lookups that rename has made
system.cpu.rename.RenamedInsts               12031796                       # Number of instructions processed by rename
system.cpu.rename.RenamedOperands            12999226                       # Number of destination operands rename has renamed
system.cpu.rename.RunCycles                   2382468                       # Number of cycles rename is running
system.cpu.rename.SQFullEvents                 151335                       # Number of times rename has blocked due to SQ full
system.cpu.rename.SquashCycles                  24969                       # Number of cycles rename is squashing
system.cpu.rename.UnblockCycles                424205                       # Number of cycles rename is unblocking
system.cpu.rename.UndoneMaps                  1110115                       # Number of HB maps that are undone due to squashing
system.cpu.rename.int_rename_lookups         13471859                       # Number of integer rename lookups
system.cpu.rename.serializeStallCycles         377959                       # count of cycles rename stalled for serializing inst
system.cpu.rename.serializingInsts              19306                       # count of serializing insts renamed
system.cpu.rename.skidInsts                    687275                       # count of insts added to the skid buffer
system.cpu.rename.tempSerializingInsts            421                       # count of temporary serializing insts renamed
system.cpu.rename.vec_rename_lookups           412429                       # Number of vector rename lookups
system.cpu.rob.rob_reads                     17092658                       # The number of ROB reads
system.cpu.rob.rob_writes                    24010737                       # The number of ROB writes
system.cpu.timesIdled                           16667                       # Number of times that the entire CPU went into an idle state and unscheduled itself
system.cpu.vec_regfile_reads                   325893                       # number of vector regfile reads
system.cpu.vec_regfile_writes                  220462                       # number of vector regfile writes
system.cpu.workload.numSyscalls                    61                       # Number of system calls
system.membus.snoop_filter.hit_multi_requests            0                       # Number of requests hitting in the snoop filter with multiple (>1) holders of the requested data.
system.membus.snoop_filter.hit_multi_snoops            0                       # Number of snoops hitting in the snoop filter with multiple (>1) holders of the requested data.
system.membus.snoop_filter.hit_single_requests            0                       # Number of requests hitting in the snoop filter with a single holder of the requested data.
system.membus.snoop_filter.hit_single_snoops            0                       # Number of snoops hitting in the snoop filter with a single holder of the requested data.
system.membus.snoop_filter.tot_requests          9168                       # Total number of requests made to the snoop filter.
system.membus.snoop_filter.tot_snoops               0                       # Total number of snoops made to the snoop filter.
system.tol2bus.snoop_filter.hit_multi_requests            6                       # Number of requests hitting in the snoop filter with multiple (>1) holders of the requested data.
system.tol2bus.snoop_filter.hit_multi_snoops            0                       # Number of snoops hitting in the snoop filter with multiple (>1) holders of the requested data.
system.tol2bus.snoop_filter.hit_single_requests       112093                       # Number of requests hitting in the snoop filter with a single holder of the requested data.
system.tol2bus.snoop_filter.hit_single_snoops            0                       # Number of snoops hitting in the snoop filter with a single holder of the requested data.
system.tol2bus.snoop_filter.tot_requests       225339                       # Total number of requests made to the snoop filter.
system.tol2bus.snoop_filter.tot_snoops              0                       # Total number of snoops made to the snoop filter.
system.membus.trans_dist::ReadResp               5323                       # Transaction distribution
system.membus.trans_dist::ReadExReq              3769                       # Transaction distribution
system.membus.trans_dist::ReadExResp             3769                       # Transaction distribution
system.membus.trans_dist::ReadSharedReq          5323                       # Transaction distribution
system.membus.trans_dist::InvalidateReq            76                       # Transaction distribution
system.membus.pkt_count_system.l2.mem_side::system.mem_ctrls.port        18260                       # Packet count per connected master and slave (bytes)
system.membus.pkt_count::total                  18260                       # Packet count per connected master and slave (bytes)
system.membus.pkt_size_system.l2.mem_side::system.mem_ctrls.port       581888                       # Cumulative packet size per connected master and slave (bytes)
system.membus.pkt_size::total                  581888                       # Cumulative packet size per connected master and slave (bytes)
system.membus.snoops                                0                       # Total snoops (count)
system.membus.snoopTraffic                          0                       # Total snoop traffic (bytes)
system.membus.snoop_fanout::samples              9168                       # Request fanout histogram
system.membus.snoop_fanout::mean                    0                       # Request fanout histogram
system.membus.snoop_fanout::stdev                   0                       # Request fanout histogram
system.membus.snoop_fanout::underflows              0      0.00%      0.00% # Request fanout histogram
system.membus.snoop_fanout::0                    9168    100.00%    100.00% # Request fanout histogram
system.membus.snoop_fanout::1                       0      0.00%    100.00% # Request fanout histogram
system.membus.snoop_fanout::overflows               0      0.00%    100.00% # Request fanout histogram
system.membus.snoop_fanout::min_value               0                       # Request fanout histogram
system.membus.snoop_fanout::max_value               0                       # Request fanout histogram
system.membus.snoop_fanout::total                9168                       # Request fanout histogram
system.membus.reqLayer0.occupancy            11132000                       # Layer occupancy (ticks)
system.membus.reqLayer0.utilization               0.4                       # Layer utilization (%)
system.membus.respLayer1.occupancy           47967500                       # Layer occupancy (ticks)
system.membus.respLayer1.utilization              1.6                       # Layer utilization (%)
system.membus.power_state.pwrStateResidencyTicks::UNDEFINED   3081149500                       # Cumulative time (in ticks) in various power states
system.tol2bus.trans_dist::ReadResp            108565                       # Transaction distribution
system.tol2bus.trans_dist::WritebackDirty         9443                       # Transaction distribution
system.tol2bus.trans_dist::WritebackClean        89047                       # Transaction distribution
system.tol2bus.trans_dist::CleanEvict           13603                       # Transaction distribution
system.tol2bus.trans_dist::ReadExReq             4577                       # Transaction distribution
system.tol2bus.trans_dist::ReadExResp            4577                       # Transaction distribution
system.tol2bus.trans_dist::ReadCleanReq         89176                       # Transaction distribution
system.tol2bus.trans_dist::ReadSharedReq        19390                       # Transaction distribution
system.tol2bus.trans_dist::InvalidateReq          103                       # Transaction distribution
system.tol2bus.trans_dist::InvalidateResp          103                       # Transaction distribution
system.tol2bus.pkt_count_system.cpu.icache.mem_side::system.l2.cpu_side       267398                       # Packet count per connected master and slave (bytes)
system.tol2bus.pkt_count_system.cpu.dcache.mem_side::system.l2.cpu_side        71186                       # Packet count per connected master and slave (bytes)
system.tol2bus.pkt_count::total                338584                       # Packet count per connected master and slave (bytes)
system.tol2bus.pkt_size_system.cpu.icache.mem_side::system.l2.cpu_side     11406208                       # Cumulative packet size per connected master and slave (bytes)
system.tol2bus.pkt_size_system.cpu.dcache.mem_side::system.l2.cpu_side      2138240                       # Cumulative packet size per connected master and slave (bytes)
system.tol2bus.pkt_size::total               13544448                       # Cumulative packet size per connected master and slave (bytes)
system.tol2bus.snoops                               0                       # Total snoops (count)
system.tol2bus.snoopTraffic                         0                       # Total snoop traffic (bytes)
system.tol2bus.snoop_fanout::samples           113246                       # Request fanout histogram
system.tol2bus.snoop_fanout::mean            0.000053                       # Request fanout histogram
system.tol2bus.snoop_fanout::stdev           0.007279                       # Request fanout histogram
system.tol2bus.snoop_fanout::underflows             0      0.00%      0.00% # Request fanout histogram
system.tol2bus.snoop_fanout::0                 113240     99.99%     99.99% # Request fanout histogram
system.tol2bus.snoop_fanout::1                      6      0.01%    100.00% # Request fanout histogram
system.tol2bus.snoop_fanout::2                      0      0.00%    100.00% # Request fanout histogram
system.tol2bus.snoop_fanout::overflows              0      0.00%    100.00% # Request fanout histogram
system.tol2bus.snoop_fanout::min_value              0                       # Request fanout histogram
system.tol2bus.snoop_fanout::max_value              1                       # Request fanout histogram
system.tol2bus.snoop_fanout::total             113246                       # Request fanout histogram
system.tol2bus.reqLayer0.occupancy          215184100                       # Layer occupancy (ticks)
system.tol2bus.reqLayer0.utilization              7.0                       # Layer utilization (%)
system.tol2bus.respLayer1.occupancy          36145712                       # Layer occupancy (ticks)
system.tol2bus.respLayer1.utilization             1.2                       # Layer utilization (%)
system.tol2bus.respLayer0.occupancy         133765494                       # Layer occupancy (ticks)
system.tol2bus.respLayer0.utilization             4.3                       # Layer utilization (%)
system.tol2bus.power_state.pwrStateResidencyTicks::UNDEFINED   3081149500                       # Cumulative time (in ticks) in various power states
system.voltage_domain.voltage                       1                       # Voltage in Volts
system.clk_domain.clock                          1000                       # Clock period in ticks
system.l2.demand_hits::.cpu.inst                18513                       # number of demand (read+write) hits
system.l2.demand_hits::.cpu.data                17193                       # number of demand (read+write) hits
system.l2.demand_hits::.cpu.icache.prefetcher        68344                       # number of demand (read+write) hits
system.l2.demand_hits::total                   104050                       # number of demand (read+write) hits
system.l2.overall_hits::.cpu.inst               18513                       # number of overall hits
system.l2.overall_hits::.cpu.data               17193                       # number of overall hits
system.l2.overall_hits::.cpu.icache.prefetcher        68344                       # number of overall hits
system.l2.overall_hits::total                  104050                       # number of overall hits
system.l2.demand_misses::.cpu.inst               2319                       # number of demand (read+write) misses
system.l2.demand_misses::.cpu.data               6774                       # number of demand (read+write) misses
system.l2.demand_misses::total                   9093                       # number of demand (read+write) misses
system.l2.overall_misses::.cpu.inst              2319                       # number of overall misses
system.l2.overall_misses::.cpu.data              6774                       # number of overall misses
system.l2.overall_misses::total                  9093                       # number of overall misses
system.l2.demand_miss_latency::.cpu.inst    179677000                       # number of demand (read+write) miss cycles
system.l2.demand_miss_latency::.cpu.data    518339500                       # number of demand (read+write) miss cycles
system.l2.demand_miss_latency::total        698016500                       # number of demand (read+write) miss cycles
system.l2.overall_miss_latency::.cpu.inst    179677000                       # number of overall miss cycles
system.l2.overall_miss_latency::.cpu.data    518339500                       # number of overall miss cycles
system.l2.overall_miss_latency::total       698016500                       # number of overall miss cycles
system.l2.demand_accesses::.cpu.inst            20832                       # number of demand (read+write) accesses
system.l2.demand_accesses::.cpu.data            23967                       # number of demand (read+write) accesses
system.l2.demand_accesses::.cpu.icache.prefetcher        68344                       # number of demand (read+write) accesses
system.l2.demand_accesses::total               113143                       # number of demand (read+write) accesses
system.l2.overall_accesses::.cpu.inst           20832                       # number of overall (read+write) accesses
system.l2.overall_accesses::.cpu.data           23967                       # number of overall (read+write) accesses
system.l2.overall_accesses::.cpu.icache.prefetcher        68344                       # number of overall (read+write) accesses
system.l2.overall_accesses::total              113143                       # number of overall (read+write) accesses
system.l2.demand_miss_rate::.cpu.inst        0.111319                       # miss rate for demand accesses
system.l2.demand_miss_rate::.cpu.data        0.282639                       # miss rate for demand accesses
system.l2.demand_miss_rate::total            0.080367                       # miss rate for demand accesses
system.l2.overall_miss_rate::.cpu.inst       0.111319                       # miss rate for overall accesses
system.l2.overall_miss_rate::.cpu.data       0.282639                       # miss rate for overall accesses
system.l2.overall_miss_rate::total           0.080367                       # miss rate for overall accesses
system.l2.demand_avg_miss_latency::.cpu.inst 77480.379474                       # average overall miss latency
system.l2.demand_avg_miss_latency::.cpu.data 76518.969590                       # average overall miss latency
system.l2.demand_avg_miss_latency::total 76764.159243                       # average overall miss latency
system.l2.overall_avg_miss_latency::.cpu.inst 77480.379474                       # average overall miss latency
system.l2.overall_avg_miss_latency::.cpu.data 76518.969590                       # average overall miss latency
system.l2.overall_avg_miss_latency::total 76764.159243                       # average overall miss latency
system.l2.blocked_cycles::no_mshrs                  0                       # number of cycles access was blocked
system.l2.blocked_cycles::no_targets                0                       # number of cycles access was blocked
system.l2.blocked::no_mshrs                         0                       # number of cycles access was blocked
system.l2.blocked::no_targets                       0                       # number of cycles access was blocked
system.l2.avg_blocked_cycles::no_mshrs            nan                       # average number of cycles each access was blocked
system.l2.avg_blocked_cycles::no_targets          nan                       # average number of cycles each access was blocked
system.l2.demand_mshr_misses::.cpu.inst          2319                       # number of demand (read+write) MSHR misses
system.l2.demand_mshr_misses::.cpu.data          6774                       # number of demand (read+write) MSHR misses
system.l2.demand_mshr_misses::total              9093                       # number of demand (read+write) MSHR misses
system.l2.overall_mshr_misses::.cpu.inst         2319                       # number of overall MSHR misses
system.l2.overall_mshr_misses::.cpu.data         6774                       # number of overall MSHR misses
system.l2.overall_mshr_misses::total             9093                       # number of overall MSHR misses
system.l2.demand_mshr_miss_latency::.cpu.inst    156497000                       # number of demand (read+write) MSHR miss cycles
system.l2.demand_mshr_miss_latency::.cpu.data    450599500                       # number of demand (read+write) MSHR miss cycles
system.l2.demand_mshr_miss_latency::total    607096500                       # number of demand (read+write) MSHR miss cycles
system.l2.overall_mshr_miss_latency::.cpu.inst    156497000                       # number of overall MSHR miss cycles
system.l2.overall_mshr_miss_latency::.cpu.data    450599500                       # number of overall MSHR miss cycles
system.l2.overall_mshr_miss_latency::total    607096500                       # number of overall MSHR miss cycles
system.l2.demand_mshr_miss_rate::.cpu.inst     0.111319                       # mshr miss rate for demand accesses
system.l2.demand_mshr_miss_rate::.cpu.data     0.282639                       # mshr miss rate for demand accesses
system.l2.demand_mshr_miss_rate::total       0.080367                       # mshr miss rate for demand accesses
system.l2.overall_mshr_miss_rate::.cpu.inst     0.111319                       # mshr miss rate for overall accesses
system.l2.overall_mshr_miss_rate::.cpu.data     0.282639                       # mshr miss rate for overall accesses
system.l2.overall_mshr_miss_rate::total      0.080367                       # mshr miss rate for overall accesses
system.l2.demand_avg_mshr_miss_latency::.cpu.inst 67484.691677                       # average overall mshr miss latency
system.l2.demand_avg_mshr_miss_latency::.cpu.data 66518.969590                       # average overall mshr miss latency
system.l2.demand_avg_mshr_miss_latency::total 66765.258990                       # average overall mshr miss latency
system.l2.overall_avg_mshr_miss_latency::.cpu.inst 67484.691677                       # average overall mshr miss latency
system.l2.overall_avg_mshr_miss_latency::.cpu.data 66518.969590                       # average overall mshr miss latency
system.l2.overall_avg_mshr_miss_latency::total 66765.258990                       # average overall mshr miss latency
system.l2.replacements                              0                       # number of replacements
system.l2.WritebackDirty_hits::.writebacks         9443                       # number of WritebackDirty hits
system.l2.WritebackDirty_hits::total             9443                       # number of WritebackDirty hits
system.l2.WritebackDirty_accesses::.writebacks         9443                       # number of WritebackDirty accesses(hits+misses)
system.l2.WritebackDirty_accesses::total         9443                       # number of WritebackDirty accesses(hits+misses)
system.l2.WritebackClean_hits::.writebacks        89041                       # number of WritebackClean hits
system.l2.WritebackClean_hits::total            89041                       # number of WritebackClean hits
system.l2.WritebackClean_accesses::.writebacks        89041                       # number of WritebackClean accesses(hits+misses)
system.l2.WritebackClean_accesses::total        89041                       # number of WritebackClean accesses(hits+misses)
system.l2.ReadExReq_hits::.cpu.data               808                       # number of ReadExReq hits
system.l2.ReadExReq_hits::total                   808                       # number of ReadExReq hits
system.l2.ReadExReq_misses::.cpu.data            3769                       # number of ReadExReq misses
system.l2.ReadExReq_misses::total                3769                       # number of ReadExReq misses
system.l2.ReadExReq_miss_latency::.cpu.data    288626500                       # number of ReadExReq miss cycles
system.l2.ReadExReq_miss_latency::total     288626500                       # number of ReadExReq miss cycles
system.l2.ReadExReq_accesses::.cpu.data          4577                       # number of ReadExReq accesses(hits+misses)
system.l2.ReadExReq_accesses::total              4577                       # number of ReadExReq accesses(hits+misses)
system.l2.ReadExReq_miss_rate::.cpu.data     0.823465                       # miss rate for ReadExReq accesses
system.l2.ReadExReq_miss_rate::total         0.823465                       # miss rate for ReadExReq accesses
system.l2.ReadExReq_avg_miss_latency::.cpu.data 76579.066065                       # average ReadExReq miss latency
system.l2.ReadExReq_avg_miss_latency::total 76579.066065                       # average ReadExReq miss latency
system.l2.ReadExReq_mshr_misses::.cpu.data         3769                       # number of ReadExReq MSHR misses
system.l2.ReadExReq_mshr_misses::total           3769                       # number of ReadExReq MSHR misses
system.l2.ReadExReq_mshr_miss_latency::.cpu.data    250936500                       # number of ReadExReq MSHR miss cycles
system.l2.ReadExReq_mshr_miss_latency::total    250936500                       # number of ReadExReq MSHR miss cycles
system.l2.ReadExReq_mshr_miss_rate::.cpu.data     0.823465                       # mshr miss rate for ReadExReq accesses
system.l2.ReadExReq_mshr_miss_rate::total     0.823465                       # mshr miss rate for ReadExReq accesses
system.l2.ReadExReq_avg_mshr_miss_latency::.cpu.data 66579.066065                       # average ReadExReq mshr miss latency
system.l2.ReadExReq_avg_mshr_miss_latency::total 66579.066065                       # average ReadExReq mshr miss latency
system.l2.ReadCleanReq_hits::.cpu.inst          18513                       # number of ReadCleanReq hits
system.l2.ReadCleanReq_hits::.cpu.icache.prefetcher        68344                       # number of ReadCleanReq hits
system.l2.ReadCleanReq_hits::total              86857                       # number of ReadCleanReq hits
system.l2.ReadCleanReq_misses::.cpu.inst         2319                       # number of ReadCleanReq misses
system.l2.ReadCleanReq_misses::total             2319                       # number of ReadCleanReq misses
system.l2.ReadCleanReq_miss_latency::.cpu.inst    179677000                       # number of ReadCleanReq miss cycles
system.l2.ReadCleanReq_miss_latency::total    179677000                       # number of ReadCleanReq miss cycles
system.l2.ReadCleanReq_accesses::.cpu.inst        20832                       # number of ReadCleanReq accesses(hits+misses)
system.l2.ReadCleanReq_accesses::.cpu.icache.prefetcher        68344                       # number of ReadCleanReq accesses(hits+misses)
system.l2.ReadCleanReq_accesses::total          89176                       # number of ReadCleanReq accesses(hits+misses)
system.l2.ReadCleanReq_miss_rate::.cpu.inst     0.111319                       # miss rate for ReadCleanReq accesses
system.l2.ReadCleanReq_miss_rate::total      0.026005                       # miss rate for ReadCleanReq accesses
[...]
system.cpu.dcache.demand_accesses::total      2373598                       # number of demand (read+write) accesses
system.cpu.dcache.overall_accesses::.cpu.data      2375249                       # number of overall (read+write) accesses
system.cpu.dcache.overall_accesses::total      2375249                       # number of overall (read+write) accesses
system.cpu.dcache.demand_miss_rate::.cpu.data     0.028771                       # miss rate for demand accesses
system.cpu.dcache.demand_miss_rate::total     0.028771                       # miss rate for demand accesses
system.cpu.dcache.overall_miss_rate::.cpu.data     0.028762                       # miss rate for overall accesses
system.cpu.dcache.overall_miss_rate::total     0.028762                       # miss rate for overall accesses
system.cpu.dcache.demand_avg_miss_latency::.cpu.data 40662.651911                       # average overall miss latency
system.cpu.dcache.demand_avg_miss_latency::total 40662.651911                       # average overall miss latency
system.cpu.dcache.overall_avg_miss_latency::.cpu.data 40646.581363                       # average overall miss latency
system.cpu.dcache.overall_avg_miss_latency::total 40646.581363                       # average overall miss latency
system.cpu.dcache.blocked_cycles::no_mshrs            0                       # number of cycles access was blocked
system.cpu.dcache.blocked_cycles::no_targets        33183                       # number of cycles access was blocked
system.cpu.dcache.blocked::no_mshrs                 0                       # number of cycles access was blocked
system.cpu.dcache.blocked::no_targets             271                       # number of cycles access was blocked
system.cpu.dcache.avg_blocked_cycles::no_mshrs          nan                       # average number of cycles each access was blocked
system.cpu.dcache.avg_blocked_cycles::no_targets   122.446494                       # average number of cycles each access was blocked
system.cpu.dcache.writebacks::.writebacks         9443                       # number of writebacks
system.cpu.dcache.writebacks::total              9443                       # number of writebacks
system.cpu.dcache.demand_mshr_hits::.cpu.data        44252                       # number of demand (read+write) MSHR hits
system.cpu.dcache.demand_mshr_hits::total        44252                       # number of demand (read+write) MSHR hits
system.cpu.dcache.overall_mshr_hits::.cpu.data        44252                       # number of overall MSHR hits
system.cpu.dcache.overall_mshr_hits::total        44252                       # number of overall MSHR hits
system.cpu.dcache.demand_mshr_misses::.cpu.data        24038                       # number of demand (read+write) MSHR misses
system.cpu.dcache.demand_mshr_misses::total        24038                       # number of demand (read+write) MSHR misses
system.cpu.dcache.overall_mshr_misses::.cpu.data        24065                       # number of overall MSHR misses
system.cpu.dcache.overall_mshr_misses::total        24065                       # number of overall MSHR misses
system.cpu.dcache.demand_mshr_miss_latency::.cpu.data    740180499                       # number of demand (read+write) MSHR miss cycles
system.cpu.dcache.demand_mshr_miss_latency::total    740180499                       # number of demand (read+write) MSHR miss cycles
system.cpu.dcache.overall_mshr_miss_latency::.cpu.data    740749499                       # number of overall MSHR miss cycles
system.cpu.dcache.overall_mshr_miss_latency::total    740749499                       # number of overall MSHR miss cycles
system.cpu.dcache.demand_mshr_miss_rate::.cpu.data     0.010127                       # mshr miss rate for demand accesses
system.cpu.dcache.demand_mshr_miss_rate::total     0.010127                       # mshr miss rate for demand accesses
system.cpu.dcache.overall_mshr_miss_rate::.cpu.data     0.010132                       # mshr miss rate for overall accesses
system.cpu.dcache.overall_mshr_miss_rate::total     0.010132                       # mshr miss rate for overall accesses
system.cpu.dcache.demand_avg_mshr_miss_latency::.cpu.data 30792.099967                       # average overall mshr miss latency
system.cpu.dcache.demand_avg_mshr_miss_latency::total 30792.099967                       # average overall mshr miss latency
system.cpu.dcache.overall_avg_mshr_miss_latency::.cpu.data 30781.196717                       # average overall mshr miss latency
system.cpu.dcache.overall_avg_mshr_miss_latency::total 30781.196717                       # average overall mshr miss latency
system.cpu.dcache.replacements                  23046                       # number of replacements
system.cpu.dcache.ReadReq_hits::.cpu.data      1238005                       # number of ReadReq hits
system.cpu.dcache.ReadReq_hits::total         1238005                       # number of ReadReq hits
system.cpu.dcache.ReadReq_misses::.cpu.data        41038                       # number of ReadReq misses
system.cpu.dcache.ReadReq_misses::total         41038                       # number of ReadReq misses
system.cpu.dcache.ReadReq_miss_latency::.cpu.data   1184138000                       # number of ReadReq miss cycles
system.cpu.dcache.ReadReq_miss_latency::total   1184138000                       # number of ReadReq miss cycles
system.cpu.dcache.ReadReq_accesses::.cpu.data      1279043                       # number of ReadReq accesses(hits+misses)
system.cpu.dcache.ReadReq_accesses::total      1279043                       # number of ReadReq accesses(hits+misses)
system.cpu.dcache.ReadReq_miss_rate::.cpu.data     0.032085                       # miss rate for ReadReq accesses
system.cpu.dcache.ReadReq_miss_rate::total     0.032085                       # miss rate for ReadReq accesses
system.cpu.dcache.ReadReq_avg_miss_latency::.cpu.data 28854.671280                       # average ReadReq miss latency
system.cpu.dcache.ReadReq_avg_miss_latency::total 28854.671280                       # average ReadReq miss latency
system.cpu.dcache.ReadReq_mshr_hits::.cpu.data        21680                       # number of ReadReq MSHR hits
system.cpu.dcache.ReadReq_mshr_hits::total        21680                       # number of ReadReq MSHR hits
system.cpu.dcache.ReadReq_mshr_misses::.cpu.data        19358                       # number of ReadReq MSHR misses
system.cpu.dcache.ReadReq_mshr_misses::total        19358                       # number of ReadReq MSHR misses
system.cpu.dcache.ReadReq_mshr_miss_latency::.cpu.data    431830500                       # number of ReadReq MSHR miss cycles
system.cpu.dcache.ReadReq_mshr_miss_latency::total    431830500                       # number of ReadReq MSHR miss cycles
system.cpu.dcache.ReadReq_mshr_miss_rate::.cpu.data     0.015135                       # mshr miss rate for ReadReq accesses
system.cpu.dcache.ReadReq_mshr_miss_rate::total     0.015135                       # mshr miss rate for ReadReq accesses
system.cpu.dcache.ReadReq_avg_mshr_miss_latency::.cpu.data 22307.598926                       # average ReadReq mshr miss latency
system.cpu.dcache.ReadReq_avg_mshr_miss_latency::total 22307.598926                       # average ReadReq mshr miss latency
system.cpu.dcache.WriteReq_hits::.cpu.data      1067142                       # number of WriteReq hits
system.cpu.dcache.WriteReq_hits::total        1067142                       # number of WriteReq hits
system.cpu.dcache.WriteReq_misses::.cpu.data        27174                       # number of WriteReq misses
system.cpu.dcache.WriteReq_misses::total        27174                       # number of WriteReq misses
system.cpu.dcache.WriteReq_miss_latency::.cpu.data   1590241999                       # number of WriteReq miss cycles
system.cpu.dcache.WriteReq_miss_latency::total   1590241999                       # number of WriteReq miss cycles
system.cpu.dcache.WriteReq_accesses::.cpu.data      1094316                       # number of WriteReq accesses(hits+misses)
system.cpu.dcache.WriteReq_accesses::total      1094316                       # number of WriteReq accesses(hits+misses)
system.cpu.dcache.WriteReq_miss_rate::.cpu.data     0.024832                       # miss rate for WriteReq accesses
system.cpu.dcache.WriteReq_miss_rate::total     0.024832                       # miss rate for WriteReq accesses
system.cpu.dcache.WriteReq_avg_miss_latency::.cpu.data 58520.718297                       # average WriteReq miss latency
system.cpu.dcache.WriteReq_avg_miss_latency::total 58520.718297                       # average WriteReq miss latency
system.cpu.dcache.WriteReq_mshr_hits::.cpu.data        22572                       # number of WriteReq MSHR hits
system.cpu.dcache.WriteReq_mshr_hits::total        22572                       # number of WriteReq MSHR hits
system.cpu.dcache.WriteReq_mshr_misses::.cpu.data         4602                       # number of WriteReq MSHR misses
system.cpu.dcache.WriteReq_mshr_misses::total         4602                       # number of WriteReq MSHR misses
system.cpu.dcache.WriteReq_mshr_miss_latency::.cpu.data    305955499                       # number of WriteReq MSHR miss cycles
system.cpu.dcache.WriteReq_mshr_miss_latency::total    305955499                       # number of WriteReq MSHR miss cycles
system.cpu.dcache.WriteReq_mshr_miss_rate::.cpu.data     0.004205                       # mshr miss rate for WriteReq accesses
system.cpu.dcache.WriteReq_mshr_miss_rate::total     0.004205                       # mshr miss rate for WriteReq accesses
system.cpu.dcache.WriteReq_avg_mshr_miss_latency::.cpu.data 66483.159279                       # average WriteReq mshr miss latency
system.cpu.dcache.WriteReq_avg_mshr_miss_latency::total 66483.159279                       # average WriteReq mshr miss latency
system.cpu.dcache.SoftPFReq_hits::.cpu.data         1624                       # number of SoftPFReq hits
system.cpu.dcache.SoftPFReq_hits::total          1624                       # number of SoftPFReq hits
system.cpu.dcache.SoftPFReq_misses::.cpu.data           27                       # number of SoftPFReq misses
system.cpu.dcache.SoftPFReq_misses::total           27                       # number of SoftPFReq misses
system.cpu.dcache.SoftPFReq_accesses::.cpu.data         1651                       # number of SoftPFReq accesses(hits+misses)
system.cpu.dcache.SoftPFReq_accesses::total         1651                       # number of SoftPFReq accesses(hits+misses)
system.cpu.dcache.SoftPFReq_miss_rate::.cpu.data     0.016354                       # miss rate for SoftPFReq accesses
system.cpu.dcache.SoftPFReq_miss_rate::total     0.016354                       # miss rate for SoftPFReq accesses
system.cpu.dcache.SoftPFReq_mshr_misses::.cpu.data           27                       # number of SoftPFReq MSHR misses
system.cpu.dcache.SoftPFReq_mshr_misses::total           27                       # number of SoftPFReq MSHR misses
system.cpu.dcache.SoftPFReq_mshr_miss_latency::.cpu.data       569000                       # number of SoftPFReq MSHR miss cycles
system.cpu.dcache.SoftPFReq_mshr_miss_latency::total       569000                       # number of SoftPFReq MSHR miss cycles
system.cpu.dcache.SoftPFReq_mshr_miss_rate::.cpu.data     0.016354                       # mshr miss rate for SoftPFReq accesses
system.cpu.dcache.SoftPFReq_mshr_miss_rate::total     0.016354                       # mshr miss rate for SoftPFReq accesses
system.cpu.dcache.SoftPFReq_avg_mshr_miss_latency::.cpu.data 21074.074074                       # average SoftPFReq mshr miss latency
system.cpu.dcache.SoftPFReq_avg_mshr_miss_latency::total 21074.074074                       # average SoftPFReq mshr miss latency
system.cpu.dcache.WriteLineReq_hits::.cpu.data          161                       # number of WriteLineReq hits
system.cpu.dcache.WriteLineReq_hits::total          161                       # number of WriteLineReq hits
system.cpu.dcache.WriteLineReq_misses::.cpu.data           78                       # number of WriteLineReq misses
system.cpu.dcache.WriteLineReq_misses::total           78                       # number of WriteLineReq misses
system.cpu.dcache.WriteLineReq_miss_latency::.cpu.data      2472500                       # number of WriteLineReq miss cycles
system.cpu.dcache.WriteLineReq_miss_latency::total      2472500                       # number of WriteLineReq miss cycles
system.cpu.dcache.WriteLineReq_accesses::.cpu.data          239                       # number of WriteLineReq accesses(hits+misses)
system.cpu.dcache.WriteLineReq_accesses::total          239                       # number of WriteLineReq accesses(hits+misses)
system.cpu.dcache.WriteLineReq_miss_rate::.cpu.data     0.326360                       # miss rate for WriteLineReq accesses
system.cpu.dcache.WriteLineReq_miss_rate::total     0.326360                       # miss rate for WriteLineReq accesses
system.cpu.dcache.WriteLineReq_avg_miss_latency::.cpu.data 31698.717949                       # average WriteLineReq miss latency
system.cpu.dcache.WriteLineReq_avg_miss_latency::total 31698.717949                       # average WriteLineReq miss latency
system.cpu.dcache.WriteLineReq_mshr_misses::.cpu.data           78                       # number of WriteLineReq MSHR misses
system.cpu.dcache.WriteLineReq_mshr_misses::total           78                       # number of WriteLineReq MSHR misses
system.cpu.dcache.WriteLineReq_mshr_miss_latency::.cpu.data      2394500                       # number of WriteLineReq MSHR miss cycles
system.cpu.dcache.WriteLineReq_mshr_miss_latency::total      2394500                       # number of WriteLineReq MSHR miss cycles
system.cpu.dcache.WriteLineReq_mshr_miss_rate::.cpu.data     0.326360                       # mshr miss rate for WriteLineReq accesses
system.cpu.dcache.WriteLineReq_mshr_miss_rate::total     0.326360                       # mshr miss rate for WriteLineReq accesses
system.cpu.dcache.WriteLineReq_avg_mshr_miss_latency::.cpu.data 30698.717949                       # average WriteLineReq mshr miss latency
system.cpu.dcache.WriteLineReq_avg_mshr_miss_latency::total 30698.717949                       # average WriteLineReq mshr miss latency
system.cpu.dcache.LoadLockedReq_hits::.cpu.data          299                       # number of LoadLockedReq hits
system.cpu.dcache.LoadLockedReq_hits::total          299                       # number of LoadLockedReq hits
system.cpu.dcache.LoadLockedReq_misses::.cpu.data            9                       # number of LoadLockedReq misses
system.cpu.dcache.LoadLockedReq_misses::total            9                       # number of LoadLockedReq misses
system.cpu.dcache.LoadLockedReq_miss_latency::.cpu.data       315000                       # number of LoadLockedReq miss cycles
system.cpu.dcache.LoadLockedReq_miss_latency::total       315000                       # number of LoadLockedReq miss cycles
system.cpu.dcache.LoadLockedReq_accesses::.cpu.data          308                       # number of LoadLockedReq accesses(hits+misses)
system.cpu.dcache.LoadLockedReq_accesses::total          308                       # number of LoadLockedReq accesses(hits+misses)
system.cpu.dcache.LoadLockedReq_miss_rate::.cpu.data     0.029221                       # miss rate for LoadLockedReq accesses
system.cpu.dcache.LoadLockedReq_miss_rate::total     0.029221                       # miss rate for LoadLockedReq accesses
system.cpu.dcache.LoadLockedReq_avg_miss_latency::.cpu.data        35000                       # average LoadLockedReq miss latency
system.cpu.dcache.LoadLockedReq_avg_miss_latency::total        35000                       # average LoadLockedReq miss latency
system.cpu.dcache.LoadLockedReq_mshr_hits::.cpu.data            4                       # number of LoadLockedReq MSHR hits
system.cpu.dcache.LoadLockedReq_mshr_hits::total            4                       # number of LoadLockedReq MSHR hits
system.cpu.dcache.LoadLockedReq_mshr_misses::.cpu.data            5                       # number of LoadLockedReq MSHR misses
system.cpu.dcache.LoadLockedReq_mshr_misses::total            5                       # number of LoadLockedReq MSHR misses
system.cpu.dcache.LoadLockedReq_mshr_miss_latency::.cpu.data       167500                       # number of LoadLockedReq MSHR miss cycles
system.cpu.dcache.LoadLockedReq_mshr_miss_latency::total       167500                       # number of LoadLockedReq MSHR miss cycles
system.cpu.dcache.LoadLockedReq_mshr_miss_rate::.cpu.data     0.016234                       # mshr miss rate for LoadLockedReq accesses
system.cpu.dcache.LoadLockedReq_mshr_miss_rate::total     0.016234                       # mshr miss rate for LoadLockedReq accesses
system.cpu.dcache.LoadLockedReq_avg_mshr_miss_latency::.cpu.data        33500                       # average LoadLockedReq mshr miss latency
system.cpu.dcache.LoadLockedReq_avg_mshr_miss_latency::total        33500                       # average LoadLockedReq mshr miss latency
system.cpu.dcache.StoreCondReq_hits::.cpu.data          267                       # number of StoreCondReq hits
system.cpu.dcache.StoreCondReq_hits::total          267                       # number of StoreCondReq hits
system.cpu.dcache.StoreCondReq_accesses::.cpu.data          267                       # number of StoreCondReq accesses(hits+misses)
system.cpu.dcache.StoreCondReq_accesses::total          267                       # number of StoreCondReq accesses(hits+misses)
system.cpu.dcache.power_state.pwrStateResidencyTicks::UNDEFINED   3081149500                       # Cumulative time (in ticks) in various power states
system.cpu.dcache.tags.tagsinuse           932.390522                       # Cycle average of tags in use
system.cpu.dcache.tags.total_refs             2331568                       # Total number of references to valid blocks.
system.cpu.dcache.tags.sampled_refs             24070                       # Sample count of references to valid blocks.
system.cpu.dcache.tags.avg_refs             96.866140                       # Average number of references to valid blocks.
system.cpu.dcache.tags.warmup_cycle            176500                       # Cycle when the warmup percentage was hit.
system.cpu.dcache.tags.occ_blocks::.cpu.data   932.390522                       # Average occupied blocks per requestor
system.cpu.dcache.tags.occ_percent::.cpu.data     0.910538                       # Average percentage of cache occupancy
system.cpu.dcache.tags.occ_percent::total     0.910538                       # Average percentage of cache occupancy
system.cpu.dcache.tags.occ_task_id_blocks::1024         1024                       # Occupied blocks per task id
system.cpu.dcache.tags.age_task_id_blocks_1024::0          189                       # Occupied blocks per task id
system.cpu.dcache.tags.age_task_id_blocks_1024::1          267                       # Occupied blocks per task id
system.cpu.dcache.tags.age_task_id_blocks_1024::2          564                       # Occupied blocks per task id
system.cpu.dcache.tags.age_task_id_blocks_1024::3            4                       # Occupied blocks per task id
system.cpu.dcache.tags.occ_task_id_percent::1024            1                       # Percentage of cache occupancy per task id
system.cpu.dcache.tags.tag_accesses           4775718                       # Number of tag accesses
system.cpu.dcache.tags.data_accesses          4775718                       # Number of data accesses
system.cpu.dcache.tags.power_state.pwrStateResidencyTicks::UNDEFINED   3081149500                       # Cumulative time (in ticks) in various power states
system.cpu.power_state.pwrStateResidencyTicks::ON   3081149500                       # Cumulative time (in ticks) in various power states

---------- End Simulation Statistics   ----------
