
---------- Begin Simulation Statistics ----------
final_tick                                  778611500                       # Number of ticks from beginning of simulation (restored from checkpoints and never reset)
host_inst_rate                                 137002                       # Simulator instruction rate (inst/s)
host_mem_usage                                 861708                       # Number of bytes of host memory used
host_op_rate                                   141833                       # Simulator op (including micro ops) rate (op/s)
host_seconds                                     7.30                       # Real time elapsed on the host
host_tick_rate                              106668165                       # Simulator tick rate (ticks/s)
sim_freq                                 1000000000000                       # Frequency of simulated ticks
sim_insts                                     1000005                       # Number of instructions simulated
sim_ops                                       1035288                       # Number of ops (including micro ops) simulated
sim_seconds                                  0.000779                       # Number of seconds simulated
sim_ticks                                   778611500                       # Number of ticks simulated
system.cpu.branchPred.BTBCorrect                    0                       # Number of correct BTB predictions (this stat may not work properly.
system.cpu.branchPred.BTBHitPct             98.378244                       # BTB Hit Percentage
system.cpu.branchPred.BTBHits                   71338                       # Number of BTB hits
system.cpu.branchPred.BTBLookups                72514                       # Number of BTB lookups
system.cpu.branchPred.RASInCorrect                  2                       # Number of incorrect RAS predictions.
system.cpu.branchPred.condIncorrect              1430                       # Number of conditional branches incorrect
system.cpu.branchPred.condPredicted             44073                       # Number of conditional branches predicted
system.cpu.branchPred.indirectHits                 84                       # Number of indirect target hits.
system.cpu.branchPred.indirectLookups             295                       # Number of indirect predictor lookups.
system.cpu.branchPred.indirectMisses              211                       # Number of indirect misses.
system.cpu.branchPred.lookups                  147138                       # Number of BP lookups
system.cpu.branchPred.usedRAS                   50861                       # Number of times the RAS was used to get a target.
system.cpu.branchPredindirectMispredicted           94                       # Number of mispredicted indirect branches.
system.cpu.cc_regfile_reads                     69168                       # number of cc regfile reads
system.cpu.cc_regfile_writes                    68946                       # number of cc regfile writes
system.cpu.commit.amos                              0                       # Number of atomic instructions committed
system.cpu.commit.branchMispredicts              1124                       # The number of times a branch was mispredicted
system.cpu.commit.branches                      89552                       # Number of branches committed
system.cpu.commit.bw_lim_events                 65520                       # number cycles where commit BW limit reached
system.cpu.commit.commitNonSpecStalls             169                       # The number of times commit has been forced to stall to communicate backwards
system.cpu.commit.commitSquashedInsts          512303                       # The number of squashed insts skipped by commit
system.cpu.commit.committedInsts              1000413                       # Number of instructions committed
system.cpu.commit.committedOps                1035696                       # Number of ops (including micro ops) committed
system.cpu.commit.committed_per_cycle::samples      1443401                       # Number of insts commited each cycle
system.cpu.commit.committed_per_cycle::mean     0.717539                       # Number of insts commited each cycle
system.cpu.commit.committed_per_cycle::stdev     1.823485                       # Number of insts commited each cycle
system.cpu.commit.committed_per_cycle::underflows            0      0.00%      0.00% # Number of insts commited each cycle
system.cpu.commit.committed_per_cycle::0      1077334     74.64%     74.64% # Number of insts commited each cycle
system.cpu.commit.committed_per_cycle::1       196159     13.59%     88.23% # Number of insts commited each cycle
system.cpu.commit.committed_per_cycle::2        59400      4.12%     92.34% # Number of insts commited each cycle
system.cpu.commit.committed_per_cycle::3         9228      0.64%     92.98% # Number of insts commited each cycle
system.cpu.commit.committed_per_cycle::4        20754      1.44%     94.42% # Number of insts commited each cycle
system.cpu.commit.committed_per_cycle::5         7146      0.50%     94.92% # Number of insts commited each cycle
system.cpu.commit.committed_per_cycle::6         4873      0.34%     95.25% # Number of insts commited each cycle
system.cpu.commit.committed_per_cycle::7         2987      0.21%     95.46% # Number of insts commited each cycle
system.cpu.commit.committed_per_cycle::8        65520      4.54%    100.00% # Number of insts commited each cycle
system.cpu.commit.committed_per_cycle::overflows            0      0.00%    100.00% # Number of insts commited each cycle
system.cpu.commit.committed_per_cycle::min_value            0                       # Number of insts commited each cycle
system.cpu.commit.committed_per_cycle::max_value            8                       # Number of insts commited each cycle
system.cpu.commit.committed_per_cycle::total      1443401                       # Number of insts commited each cycle
system.cpu.commit.fp_insts                          0                       # Number of committed floating point instructions.
system.cpu.commit.function_calls                30618                       # Number of function calls committed.
system.cpu.commit.int_insts                   1016144                       # Number of committed integer instructions.
system.cpu.commit.loads                        160773                       # Number of loads committed
system.cpu.commit.membars                         142                       # Number of memory barriers committed
system.cpu.commit.op_class_0::No_OpClass           35      0.00%      0.00% # Class of committed instruction
system.cpu.commit.op_class_0::IntAlu           521896     50.39%     50.39% # Class of committed instruction
system.cpu.commit.op_class_0::IntMult          158304     15.28%     65.68% # Class of committed instruction
system.cpu.commit.op_class_0::IntDiv            60283      5.82%     71.50% # Class of committed instruction
system.cpu.commit.op_class_0::FloatAdd              0      0.00%     71.50% # Class of committed instruction
system.cpu.commit.op_class_0::FloatCmp              0      0.00%     71.50% # Class of committed instruction
system.cpu.commit.op_class_0::FloatCvt              0      0.00%     71.50% # Class of committed instruction
system.cpu.commit.op_class_0::FloatMult             0      0.00%     71.50% # Class of committed instruction
system.cpu.commit.op_class_0::FloatMultAcc            0      0.00%     71.50% # Class of committed instruction
system.cpu.commit.op_class_0::FloatDiv              0      0.00%     71.50% # Class of committed instruction
system.cpu.commit.op_class_0::FloatMisc             0      0.00%     71.50% # Class of committed instruction
system.cpu.commit.op_class_0::FloatSqrt             0      0.00%     71.50% # Class of committed instruction
system.cpu.commit.op_class_0::SimdAdd              83      0.01%     71.51% # Class of committed instruction
system.cpu.commit.op_class_0::SimdAddAcc            0      0.00%     71.51% # Class of committed instruction
system.cpu.commit.op_class_0::SimdAlu             138      0.01%     71.52% # Class of committed instruction
system.cpu.commit.op_class_0::SimdCmp             140      0.01%     71.53% # Class of committed instruction
system.cpu.commit.op_class_0::SimdCvt               0      0.00%     71.53% # Class of committed instruction
system.cpu.commit.op_class_0::SimdMisc            103      0.01%     71.54% # Class of committed instruction
system.cpu.commit.op_class_0::SimdMult              0      0.00%     71.54% # Class of committed instruction
system.cpu.commit.op_class_0::SimdMultAcc            0      0.00%     71.54% # Class of committed instruction
system.cpu.commit.op_class_0::SimdShift             0      0.00%     71.54% # Class of committed instruction
system.cpu.commit.op_class_0::SimdShiftAcc            0      0.00%     71.54% # Class of committed instruction
system.cpu.commit.op_class_0::SimdDiv               0      0.00%     71.54% # Class of committed instruction
system.cpu.commit.op_class_0::SimdSqrt              0      0.00%     71.54% # Class of committed instruction
system.cpu.commit.op_class_0::SimdFloatAdd            0      0.00%     71.54% # Class of committed instruction
system.cpu.commit.op_class_0::SimdFloatAlu            0      0.00%     71.54% # Class of committed instruction
system.cpu.commit.op_class_0::SimdFloatCmp            0      0.00%     71.54% # Class of committed instruction
system.cpu.commit.op_class_0::SimdFloatCvt            0      0.00%     71.54% # Class of committed instruction
system.cpu.commit.op_class_0::SimdFloatDiv            0      0.00%     71.54% # Class of committed instruction
system.cpu.commit.op_class_0::SimdFloatMisc            0      0.00%     71.54% # Class of committed instruction
system.cpu.commit.op_class_0::SimdFloatMult            0      0.00%     71.54% # Class of committed instruction
system.cpu.commit.op_class_0::SimdFloatMultAcc            0      0.00%     71.54% # Class of committed instruction
system.cpu.commit.op_class_0::SimdFloatSqrt            0      0.00%     71.54% # Class of committed instruction
system.cpu.commit.op_class_0::SimdReduceAdd            0      0.00%     71.54% # Class of committed instruction
system.cpu.commit.op_class_0::SimdReduceAlu            0      0.00%     71.54% # Class of committed instruction
system.cpu.commit.op_class_0::SimdReduceCmp            0      0.00%     71.54% # Class of committed instruction
system.cpu.commit.op_class_0::SimdFloatReduceAdd            0      0.00%     71.54% # Class of committed instruction
system.cpu.commit.op_class_0::SimdFloatReduceCmp            0      0.00%     71.54% # Class of committed instruction
system.cpu.commit.op_class_0::SimdAes               0      0.00%     71.54% # Class of committed instruction
system.cpu.commit.op_class_0::SimdAesMix            0      0.00%     71.54% # Class of committed instruction
system.cpu.commit.op_class_0::SimdSha1Hash            0      0.00%     71.54% # Class of committed instruction
system.cpu.commit.op_class_0::SimdSha1Hash2            0      0.00%     71.54% # Class of committed instruction
system.cpu.commit.op_class_0::SimdSha256Hash            0      0.00%     71.54% # Class of committed instruction
system.cpu.commit.op_class_0::SimdSha256Hash2            0      0.00%     71.54% # Class of committed instruction
system.cpu.commit.op_class_0::SimdShaSigma2            0      0.00%     71.54% # Class of committed instruction
system.cpu.commit.op_class_0::SimdShaSigma3            0      0.00%     71.54% # Class of committed instruction
system.cpu.commit.op_class_0::SimdPredAlu            0      0.00%     71.54% # Class of committed instruction
system.cpu.commit.op_class_0::MemRead          160773     15.52%     87.07% # Class of committed instruction
system.cpu.commit.op_class_0::MemWrite         133941     12.93%    100.00% # Class of committed instruction
system.cpu.commit.op_class_0::FloatMemRead            0      0.00%    100.00% # Class of committed instruction
system.cpu.commit.op_class_0::FloatMemWrite            0      0.00%    100.00% # Class of committed instruction
system.cpu.commit.op_class_0::IprAccess             0      0.00%    100.00% # Class of committed instruction
system.cpu.commit.op_class_0::InstPrefetch            0      0.00%    100.00% # Class of committed instruction
system.cpu.commit.op_class_0::total           1035696                       # Class of committed instruction
system.cpu.commit.refs                         294714                       # Number of memory references committed
system.cpu.commit.swp_count                         0                       # Number of s/w prefetches committed
system.cpu.commit.vec_insts                      1073                       # Number of committed Vector instructions.
system.cpu.committedInsts                     1000005                       # Number of Instructions Simulated
system.cpu.committedOps                       1035288                       # Number of Ops (including micro ops) Simulated
system.cpu.cpi                               1.557216                       # CPI: Cycles Per Instruction
system.cpu.cpi_total                         1.557216                       # CPI: Total CPI of All Threads
system.cpu.decode.BlockedCycles               1115539                       # Number of cycles decode is blocked
system.cpu.decode.BranchMispred                   309                       # Number of times decode detected a branch misprediction
system.cpu.decode.BranchResolved                70526                       # Number of times decode resolved a branch
system.cpu.decode.DecodedInsts                1751916                       # Number of instructions handled by decode
system.cpu.decode.IdleCycles                   123940                       # Number of cycles decode is idle
system.cpu.decode.RunCycles                    208148                       # Number of cycles decode is running
system.cpu.decode.SquashCycles                   4962                       # Number of cycles decode is squashing
system.cpu.decode.SquashedInsts                  1031                       # Number of squashed instructions handled by decode
system.cpu.decode.UnblockCycles                 56764                       # Number of cycles decode is unblocking
system.cpu.dtb.accesses                             0                       # DTB accesses
system.cpu.dtb.align_faults                         0                       # Number of TLB faults due to alignment restrictions
system.cpu.dtb.domain_faults                        0                       # Number of TLB faults due to domain restrictions
system.cpu.dtb.flush_entries                        0                       # Number of entries that have been flushed from TLB
system.cpu.dtb.flush_tlb                            0                       # Number of times complete TLB was flushed
system.cpu.dtb.flush_tlb_asid                       0                       # Number of times TLB was flushed by ASID
system.cpu.dtb.flush_tlb_mva                        0                       # Number of times TLB was flushed by MVA
system.cpu.dtb.flush_tlb_mva_asid                   0                       # Number of times TLB was flushed by MVA & ASID
system.cpu.dtb.hits                                 0                       # DTB hits
system.cpu.dtb.inst_accesses                        0                       # ITB inst accesses
system.cpu.dtb.inst_hits                            0                       # ITB inst hits
system.cpu.dtb.inst_misses                          0                       # ITB inst misses
system.cpu.dtb.misses                               0                       # DTB misses
system.cpu.dtb.perms_faults                         0                       # Number of TLB faults due to permissions restrictions
system.cpu.dtb.prefetch_faults                      0                       # Number of TLB faults due to prefetch
system.cpu.dtb.read_accesses                        0                       # DTB read accesses
system.cpu.dtb.read_hits                            0                       # DTB read hits
system.cpu.dtb.read_misses                          0                       # DTB read misses
system.cpu.dtb.stage2_mmu.stage2_tlb.accesses            0                       # DTB accesses
system.cpu.dtb.stage2_mmu.stage2_tlb.align_faults            0                       # Number of TLB faults due to alignment restrictions
system.cpu.dtb.stage2_mmu.stage2_tlb.domain_faults            0                       # Number of TLB faults due to domain restrictions
system.cpu.dtb.stage2_mmu.stage2_tlb.flush_entries            0                       # Number of entries that have been flushed from TLB
system.cpu.dtb.stage2_mmu.stage2_tlb.flush_tlb            0                       # Number of times complete TLB was flushed
system.cpu.dtb.stage2_mmu.stage2_tlb.flush_tlb_asid            0                       # Number of times TLB was flushed by ASID
system.cpu.dtb.stage2_mmu.stage2_tlb.flush_tlb_mva            0                       # Number of times TLB was flushed by MVA
system.cpu.dtb.stage2_mmu.stage2_tlb.flush_tlb_mva_asid            0                       # Number of times TLB was flushed by MVA & ASID
system.cpu.dtb.stage2_mmu.stage2_tlb.hits            0                       # DTB hits
system.cpu.dtb.stage2_mmu.stage2_tlb.inst_accesses            0                       # ITB inst accesses
system.cpu.dtb.stage2_mmu.stage2_tlb.inst_hits            0                       # ITB inst hits
system.cpu.dtb.stage2_mmu.stage2_tlb.inst_misses            0                       # ITB inst misses
system.cpu.dtb.stage2_mmu.stage2_tlb.misses            0                       # DTB misses
system.cpu.dtb.stage2_mmu.stage2_tlb.perms_faults            0                       # Number of TLB faults due to permissions restrictions
system.cpu.dtb.stage2_mmu.stage2_tlb.prefetch_faults            0                       # Number of TLB faults due to prefetch
system.cpu.dtb.stage2_mmu.stage2_tlb.read_accesses            0                       # DTB read accesses
system.cpu.dtb.stage2_mmu.stage2_tlb.read_hits            0                       # DTB read hits
system.cpu.dtb.stage2_mmu.stage2_tlb.read_misses            0                       # DTB read misses
system.cpu.dtb.stage2_mmu.stage2_tlb.walker.walkRequestOrigin_Requested::Data            0                       # Table walker requests started/completed, data/inst
system.cpu.dtb.stage2_mmu.stage2_tlb.walker.walkRequestOrigin_Requested::Inst            0                       # Table walker requests started/completed, data/inst
system.cpu.dtb.stage2_mmu.stage2_tlb.walker.walkRequestOrigin_Requested::total            0                       # Table walker requests started/completed, data/inst
system.cpu.dtb.stage2_mmu.stage2_tlb.walker.walkRequestOrigin_Completed::Data            0                       # Table walker requests started/completed, data/inst
system.cpu.dtb.stage2_mmu.stage2_tlb.walker.walkRequestOrigin_Completed::Inst            0                       # Table walker requests started/completed, data/inst
system.cpu.dtb.stage2_mmu.stage2_tlb.walker.walkRequestOrigin_Completed::total            0                       # Table walker requests started/completed, data/inst
system.cpu.dtb.stage2_mmu.stage2_tlb.walker.walkRequestOrigin::total            0                       # Table walker requests started/completed, data/inst
system.cpu.dtb.stage2_mmu.stage2_tlb.walker.walks            0                       # Table walker walks requested
system.cpu.dtb.stage2_mmu.stage2_tlb.write_accesses            0                       # DTB write accesses
system.cpu.dtb.stage2_mmu.stage2_tlb.write_hits            0                       # DTB write hits
system.cpu.dtb.stage2_mmu.stage2_tlb.write_misses            0                       # DTB write misses
system.cpu.dtb.walker.walkRequestOrigin_Requested::Data            0                       # Table walker requests started/completed, data/inst
system.cpu.dtb.walker.walkRequestOrigin_Requested::Inst            0                       # Table walker requests started/completed, data/inst
system.cpu.dtb.walker.walkRequestOrigin_Requested::total            0                       # Table walker requests started/completed, data/inst
system.cpu.dtb.walker.walkRequestOrigin_Completed::Data            0                       # Table walker requests started/completed, data/inst
system.cpu.dtb.walker.walkRequestOrigin_Completed::Inst            0                       # Table walker requests started/completed, data/inst
system.cpu.dtb.walker.walkRequestOrigin_Completed::total            0                       # Table walker requests started/completed, data/inst
system.cpu.dtb.walker.walkRequestOrigin::total            0                       # Table walker requests started/completed, data/inst
system.cpu.dtb.walker.walks                         0                       # Table walker walks requested
system.cpu.dtb.write_accesses                       0                       # DTB write accesses
system.cpu.dtb.write_hits                           0                       # DTB write hits
system.cpu.dtb.write_misses                         0                       # DTB write misses
system.cpu.fetch.Branches                      147138                       # Number of branches that fetch encountered
system.cpu.fetch.CacheLines                    218416                       # Number of cache lines fetched
system.cpu.fetch.Cycles                       1268407                       # Number of cycles fetch has run and was not squashing or blocked
system.cpu.fetch.IcacheSquashes                  2963                       # Number of outstanding Icache misses that were squashed
system.cpu.fetch.IcacheWaitRetryStallCycles           25                       # Number of stall cycles due to full MSHR
system.cpu.fetch.Insts                        1773054                       # Number of instructions fetch has processed
system.cpu.fetch.MiscStallCycles                    2                       # Number of cycles fetch has spent waiting on interrupts, or bad addresses, or out of MSHRs
system.cpu.fetch.SquashCycles                   10536                       # Number of cycles fetch has spent squashing
system.cpu.fetch.branchRate                  0.094487                       # Number of branch fetches per cycle
system.cpu.fetch.icacheStallCycles             235651                       # Number of cycles fetch is stalled on an Icache miss
system.cpu.fetch.predictedBranches             122283                       # Number of branches that fetch has predicted taken
system.cpu.fetch.rate                        1.138599                       # Number of inst fetches per cycle
system.cpu.fetch.rateDist::samples            1509353                       # Number of instructions fetched each cycle (Total)
system.cpu.fetch.rateDist::mean              1.215458                       # Number of instructions fetched each cycle (Total)
system.cpu.fetch.rateDist::stdev             2.558978                       # Number of instructions fetched each cycle (Total)
system.cpu.fetch.rateDist::underflows               0      0.00%      0.00% # Number of instructions fetched each cycle (Total)
system.cpu.fetch.rateDist::0                  1166618     77.29%     77.29% # Number of instructions fetched each cycle (Total)
system.cpu.fetch.rateDist::1                    25583      1.69%     78.99% # Number of instructions fetched each cycle (Total)
system.cpu.fetch.rateDist::2                    57128      3.78%     82.77% # Number of instructions fetched each cycle (Total)
system.cpu.fetch.rateDist::3                    19715      1.31%     84.08% # Number of instructions fetched each cycle (Total)
system.cpu.fetch.rateDist::4                    27546      1.83%     85.90% # Number of instructions fetched each cycle (Total)
system.cpu.fetch.rateDist::5                    36564      2.42%     88.33% # Number of instructions fetched each cycle (Total)
system.cpu.fetch.rateDist::6                    27944      1.85%     90.18% # Number of instructions fetched each cycle (Total)
system.cpu.fetch.rateDist::7                    11137      0.74%     90.92% # Number of instructions fetched each cycle (Total)
system.cpu.fetch.rateDist::8                   137118      9.08%    100.00% # Number of instructions fetched each cycle (Total)
system.cpu.fetch.rateDist::overflows                0      0.00%    100.00% # Number of instructions fetched each cycle (Total)
system.cpu.fetch.rateDist::min_value                0                       # Number of instructions fetched each cycle (Total)
system.cpu.fetch.rateDist::max_value                8                       # Number of instructions fetched each cycle (Total)
system.cpu.fetch.rateDist::total              1509353                       # Number of instructions fetched each cycle (Total)
system.cpu.idleCycles                           47871                       # Total number of cycles that the CPU has spent unscheduled due to idling
system.cpu.iew.branchMispredicts                 1226                       # Number of branch mispredicts detected at execute
system.cpu.iew.exec_branches                   132945                       # Number of branches executed
system.cpu.iew.exec_nop                           452                       # number of nop insts executed
system.cpu.iew.exec_rate                     0.976681                       # Inst execution rate
system.cpu.iew.exec_refs                       472827                       # number of memory reference insts executed
system.cpu.iew.exec_stores                     198300                       # Number of stores executed
system.cpu.iew.exec_swp                             0                       # number of swp insts executed
system.cpu.iew.iewBlockCycles                  319252                       # Number of cycles IEW is blocking
system.cpu.iew.iewDispLoadInsts                275734                       # Number of dispatched load instructions
system.cpu.iew.iewDispNonSpecInsts                225                       # Number of dispatched non-speculative instructions
system.cpu.iew.iewDispSquashedInsts               456                       # Number of squashed instructions skipped by dispatch
system.cpu.iew.iewDispStoreInsts               229520                       # Number of dispatched store instructions
system.cpu.iew.iewDispatchedInsts             1705324                       # Number of instructions dispatched to IQ
system.cpu.iew.iewExecLoadInsts                274527                       # Number of load instructions executed
system.cpu.iew.iewExecSquashedInsts              3599                       # Number of squashed instructions skipped in execute
system.cpu.iew.iewExecutedInsts               1520911                       # Number of executed instructions
system.cpu.iew.iewIQFullEvents                  14707                       # Number of times the IQ has become full, causing a stall
system.cpu.iew.iewIdleCycles                        0                       # Number of cycles IEW is idle
system.cpu.iew.iewLSQFullEvents                 30991                       # Number of times the LSQ has become full, causing a stall
system.cpu.iew.iewSquashCycles                   4962                       # Number of cycles IEW is squashing
system.cpu.iew.iewUnblockCycles                 54420                       # Number of cycles IEW is unblocking
system.cpu.iew.lsq.thread0.blockedLoads             0                       # Number of blocked loads due to partial load-store forwarding
system.cpu.iew.lsq.thread0.cacheBlocked          2995                       # Number of times an access to memory failed due to the cache being blocked
system.cpu.iew.lsq.thread0.forwLoads              132                       # Number of loads that had data forwarded from stores
system.cpu.iew.lsq.thread0.ignoredResponses           10                       # Number of memory responses ignored because the instruction is squashed
system.cpu.iew.lsq.thread0.invAddrLoads             0                       # Number of loads ignored due to an invalid address
system.cpu.iew.lsq.thread0.invAddrSwpfs             0                       # Number of software prefetches ignored due to an invalid address
system.cpu.iew.lsq.thread0.memOrderViolation           39                       # Number of memory ordering violations
system.cpu.iew.lsq.thread0.rescheduledLoads          179                       # Number of loads that were rescheduled
system.cpu.iew.lsq.thread0.squashedLoads       114951                       # Number of loads squashed
system.cpu.iew.lsq.thread0.squashedStores        95563                       # Number of stores squashed
system.cpu.iew.memOrderViolationEvents             39                       # Number of memory order violations
system.cpu.iew.predictedNotTakenIncorrect          739                       # Number of branches that were predicted not taken incorrectly
system.cpu.iew.predictedTakenIncorrect            487                       # Number of branches that were predicted taken incorrectly
system.cpu.iew.wb_consumers                   1592387                       # num instructions consuming a value
system.cpu.iew.wb_count                       1455430                       # cumulative count of insts written-back
system.cpu.iew.wb_fanout                     0.645967                       # average fanout of values written-back
system.cpu.iew.wb_producers                   1028630                       # num instructions producing a value
system.cpu.iew.wb_rate                       0.934631                       # insts written-back per cycle
system.cpu.iew.wb_sent                        1519397                       # cumulative count of insts sent to commit
system.cpu.int_regfile_reads                  2250389                       # number of integer regfile reads
system.cpu.int_regfile_writes                 1261140                       # number of integer regfile writes
system.cpu.ipc                               0.642172                       # IPC: Instructions Per Cycle
system.cpu.ipc_total                         0.642172                       # IPC: Total IPC of All Threads
system.cpu.iq.FU_type_0::No_OpClass                42      0.00%      0.00% # Type of FU issued
system.cpu.iq.FU_type_0::IntAlu                782580     51.33%     51.34% # Type of FU issued
system.cpu.iq.FU_type_0::IntMult               199425     13.08%     64.42% # Type of FU issued
system.cpu.iq.FU_type_0::IntDiv                 68201      4.47%     68.89% # Type of FU issued
system.cpu.iq.FU_type_0::FloatAdd                   0      0.00%     68.89% # Type of FU issued
system.cpu.iq.FU_type_0::FloatCmp                   0      0.00%     68.89% # Type of FU issued
system.cpu.iq.FU_type_0::FloatCvt                   0      0.00%     68.89% # Type of FU issued
system.cpu.iq.FU_type_0::FloatMult                  0      0.00%     68.89% # Type of FU issued
system.cpu.iq.FU_type_0::FloatMultAcc               0      0.00%     68.89% # Type of FU issued
system.cpu.iq.FU_type_0::FloatDiv                   0      0.00%     68.89% # Type of FU issued
system.cpu.iq.FU_type_0::FloatMisc                  0      0.00%     68.89% # Type of FU issued
system.cpu.iq.FU_type_0::FloatSqrt                  0      0.00%     68.89% # Type of FU issued
system.cpu.iq.FU_type_0::SimdAdd                   99      0.01%     68.90% # Type of FU issued
system.cpu.iq.FU_type_0::SimdAddAcc                 0      0.00%     68.90% # Type of FU issued
system.cpu.iq.FU_type_0::SimdAlu                  170      0.01%     68.91% # Type of FU issued
system.cpu.iq.FU_type_0::SimdCmp                  164      0.01%     68.92% # Type of FU issued
system.cpu.iq.FU_type_0::SimdCvt                    0      0.00%     68.92% # Type of FU issued
system.cpu.iq.FU_type_0::SimdMisc                 111      0.01%     68.93% # Type of FU issued
system.cpu.iq.FU_type_0::SimdMult                   0      0.00%     68.93% # Type of FU issued
system.cpu.iq.FU_type_0::SimdMultAcc                0      0.00%     68.93% # Type of FU issued
system.cpu.iq.FU_type_0::SimdShift                  0      0.00%     68.93% # Type of FU issued
system.cpu.iq.FU_type_0::SimdShiftAcc               0      0.00%     68.93% # Type of FU issued
system.cpu.iq.FU_type_0::SimdDiv                    0      0.00%     68.93% # Type of FU issued
system.cpu.iq.FU_type_0::SimdSqrt                   0      0.00%     68.93% # Type of FU issued
system.cpu.iq.FU_type_0::SimdFloatAdd               0      0.00%     68.93% # Type of FU issued
system.cpu.iq.FU_type_0::SimdFloatAlu               0      0.00%     68.93% # Type of FU issued
system.cpu.iq.FU_type_0::SimdFloatCmp               0      0.00%     68.93% # Type of FU issued
system.cpu.iq.FU_type_0::SimdFloatCvt               0      0.00%     68.93% # Type of FU issued
system.cpu.iq.FU_type_0::SimdFloatDiv               0      0.00%     68.93% # Type of FU issued
system.cpu.iq.FU_type_0::SimdFloatMisc              0      0.00%     68.93% # Type of FU issued
system.cpu.iq.FU_type_0::SimdFloatMult              0      0.00%     68.93% # Type of FU issued
system.cpu.iq.FU_type_0::SimdFloatMultAcc            0      0.00%     68.93% # Type of FU issued
system.cpu.iq.FU_type_0::SimdFloatSqrt              0      0.00%     68.93% # Type of FU issued
system.cpu.iq.FU_type_0::SimdReduceAdd              0      0.00%     68.93% # Type of FU issued
system.cpu.iq.FU_type_0::SimdReduceAlu              0      0.00%     68.93% # Type of FU issued
system.cpu.iq.FU_type_0::SimdReduceCmp              0      0.00%     68.93% # Type of FU issued
system.cpu.iq.FU_type_0::SimdFloatReduceAdd            0      0.00%     68.93% # Type of FU issued
system.cpu.iq.FU_type_0::SimdFloatReduceCmp            0      0.00%     68.93% # Type of FU issued
system.cpu.iq.FU_type_0::SimdAes                    0      0.00%     68.93% # Type of FU issued
system.cpu.iq.FU_type_0::SimdAesMix                 0      0.00%     68.93% # Type of FU issued
system.cpu.iq.FU_type_0::SimdSha1Hash               0      0.00%     68.93% # Type of FU issued
system.cpu.iq.FU_type_0::SimdSha1Hash2              0      0.00%     68.93% # Type of FU issued
system.cpu.iq.FU_type_0::SimdSha256Hash             0      0.00%     68.93% # Type of FU issued
system.cpu.iq.FU_type_0::SimdSha256Hash2            0      0.00%     68.93% # Type of FU issued
system.cpu.iq.FU_type_0::SimdShaSigma2              0      0.00%     68.93% # Type of FU issued
system.cpu.iq.FU_type_0::SimdShaSigma3              0      0.00%     68.93% # Type of FU issued
system.cpu.iq.FU_type_0::SimdPredAlu                0      0.00%     68.93% # Type of FU issued
system.cpu.iq.FU_type_0::MemRead               275191     18.05%     86.98% # Type of FU issued
system.cpu.iq.FU_type_0::MemWrite              198528     13.02%    100.00% # Type of FU issued
system.cpu.iq.FU_type_0::FloatMemRead               0      0.00%    100.00% # Type of FU issued
system.cpu.iq.FU_type_0::FloatMemWrite              0      0.00%    100.00% # Type of FU issued
system.cpu.iq.FU_type_0::IprAccess                  0      0.00%    100.00% # Type of FU issued
system.cpu.iq.FU_type_0::InstPrefetch               0      0.00%    100.00% # Type of FU issued
system.cpu.iq.FU_type_0::total                1524511                       # Type of FU issued
system.cpu.iq.fp_alu_accesses                       0                       # Number of floating point alu accesses
system.cpu.iq.fp_inst_queue_reads                   0                       # Number of floating instruction queue reads
system.cpu.iq.fp_inst_queue_wakeup_accesses            0                       # Number of floating instruction queue wakeup accesses
system.cpu.iq.fp_inst_queue_writes                  0                       # Number of floating instruction queue writes
system.cpu.iq.fu_busy_cnt                     1177386                       # FU busy when requested
system.cpu.iq.fu_busy_rate                   0.772304                       # FU busy rate (busy events/executed inst)
system.cpu.iq.fu_full::No_OpClass                   0      0.00%      0.00% # attempts to use FU when none available
system.cpu.iq.fu_full::IntAlu                    6356      0.54%      0.54% # attempts to use FU when none available
system.cpu.iq.fu_full::IntMult                 609483     51.77%     52.31% # attempts to use FU when none available
system.cpu.iq.fu_full::IntDiv                  540945     45.94%     98.25% # attempts to use FU when none available
system.cpu.iq.fu_full::FloatAdd                     0      0.00%     98.25% # attempts to use FU when none available
system.cpu.iq.fu_full::FloatCmp                     0      0.00%     98.25% # attempts to use FU when none available
system.cpu.iq.fu_full::FloatCvt                     0      0.00%     98.25% # attempts to use FU when none available
system.cpu.iq.fu_full::FloatMult                    0      0.00%     98.25% # attempts to use FU when none available
system.cpu.iq.fu_full::FloatMultAcc                 0      0.00%     98.25% # attempts to use FU when none available
system.cpu.iq.fu_full::FloatDiv                     0      0.00%     98.25% # attempts to use FU when none available
system.cpu.iq.fu_full::FloatMisc                    0      0.00%     98.25% # attempts to use FU when none available
system.cpu.iq.fu_full::FloatSqrt                    0      0.00%     98.25% # attempts to use FU when none available
system.cpu.iq.fu_full::SimdAdd                      0      0.00%     98.25% # attempts to use FU when none available
system.cpu.iq.fu_full::SimdAddAcc                   0      0.00%     98.25% # attempts to use FU when none available
system.cpu.iq.fu_full::SimdAlu                      1      0.00%     98.25% # attempts to use FU when none available
system.cpu.iq.fu_full::SimdCmp                      8      0.00%     98.25% # attempts to use FU when none available
system.cpu.iq.fu_full::SimdCvt                      0      0.00%     98.25% # attempts to use FU when none available
system.cpu.iq.fu_full::SimdMisc                     0      0.00%     98.25% # attempts to use FU when none available
system.cpu.iq.fu_full::SimdMult                     0      0.00%     98.25% # attempts to use FU when none available
system.cpu.iq.fu_full::SimdMultAcc                  0      0.00%     98.25% # attempts to use FU when none available
system.cpu.iq.fu_full::SimdShift                    0      0.00%     98.25% # attempts to use FU when none available
system.cpu.iq.fu_full::SimdShiftAcc                 0      0.00%     98.25% # attempts to use FU when none available
system.cpu.iq.fu_full::SimdDiv                      0      0.00%     98.25% # attempts to use FU when none available
system.cpu.iq.fu_full::SimdSqrt                     0      0.00%     98.25% # attempts to use FU when none available
system.cpu.iq.fu_full::SimdFloatAdd                 0      0.00%     98.25% # attempts to use FU when none available
system.cpu.iq.fu_full::SimdFloatAlu                 0      0.00%     98.25% # attempts to use FU when none available
system.cpu.iq.fu_full::SimdFloatCmp                 0      0.00%     98.25% # attempts to use FU when none available
system.cpu.iq.fu_full::SimdFloatCvt                 0      0.00%     98.25% # attempts to use FU when none available
system.cpu.iq.fu_full::SimdFloatDiv                 0      0.00%     98.25% # attempts to use FU when none available
system.cpu.iq.fu_full::SimdFloatMisc                0      0.00%     98.25% # attempts to use FU when none available
system.cpu.iq.fu_full::SimdFloatMult                0      0.00%     98.25% # attempts to use FU when none available
system.cpu.iq.fu_full::SimdFloatMultAcc             0      0.00%     98.25% # attempts to use FU when none available
system.cpu.iq.fu_full::SimdFloatSqrt                0      0.00%     98.25% # attempts to use FU when none available
system.cpu.iq.fu_full::SimdReduceAdd                0      0.00%     98.25% # attempts to use FU when none available
system.cpu.iq.fu_full::SimdReduceAlu                0      0.00%     98.25% # attempts to use FU when none available
system.cpu.iq.fu_full::SimdReduceCmp                0      0.00%     98.25% # attempts to use FU when none available
system.cpu.iq.fu_full::SimdFloatReduceAdd            0      0.00%     98.25% # attempts to use FU when none available
system.cpu.iq.fu_full::SimdFloatReduceCmp            0      0.00%     98.25% # attempts to use FU when none available
system.cpu.iq.fu_full::SimdAes                      0      0.00%     98.25% # attempts to use FU when none available
system.cpu.iq.fu_full::SimdAesMix                   0      0.00%     98.25% # attempts to use FU when none available
system.cpu.iq.fu_full::SimdSha1Hash                 0      0.00%     98.25% # attempts to use FU when none available
system.cpu.iq.fu_full::SimdSha1Hash2                0      0.00%     98.25% # attempts to use FU when none available
system.cpu.iq.fu_full::SimdSha256Hash               0      0.00%     98.25% # attempts to use FU when none available
system.cpu.iq.fu_full::SimdSha256Hash2              0      0.00%     98.25% # attempts to use FU when none available
system.cpu.iq.fu_full::SimdShaSigma2                0      0.00%     98.25% # attempts to use FU when none available
system.cpu.iq.fu_full::SimdShaSigma3                0      0.00%     98.25% # attempts to use FU when none available
system.cpu.iq.fu_full::SimdPredAlu                  0      0.00%     98.25% # attempts to use FU when none available
system.cpu.iq.fu_full::MemRead                  11062      0.94%     99.19% # attempts to use FU when none available
system.cpu.iq.fu_full::MemWrite                  9531      0.81%    100.00% # attempts to use FU when none available
system.cpu.iq.fu_full::FloatMemRead                 0      0.00%    100.00% # attempts to use FU when none available
system.cpu.iq.fu_full::FloatMemWrite                0      0.00%    100.00% # attempts to use FU when none available
system.cpu.iq.fu_full::IprAccess                    0      0.00%    100.00% # attempts to use FU when none available
system.cpu.iq.fu_full::InstPrefetch                 0      0.00%    100.00% # attempts to use FU when none available
system.cpu.iq.int_alu_accesses                2700534                       # Number of integer alu accesses
system.cpu.iq.int_inst_queue_reads            5759475                       # Number of integer instruction queue reads
system.cpu.iq.int_inst_queue_wakeup_accesses      1454228                       # Number of integer instruction queue wakeup accesses
system.cpu.iq.int_inst_queue_writes           2372842                       # Number of integer instruction queue writes
system.cpu.iq.iqInstsAdded                    1704647                       # Number of instructions added to the IQ (excludes non-spec)
system.cpu.iq.iqInstsIssued                   1524511                       # Number of instructions issued
system.cpu.iq.iqNonSpecInstsAdded                 225                       # Number of non-speculative instructions added to the IQ
system.cpu.iq.iqSquashedInstsExamined          669517                       # Number of squashed instructions iterated over during squash; mainly for profiling
system.cpu.iq.iqSquashedInstsIssued             26316                       # Number of squashed instructions issued
system.cpu.iq.iqSquashedNonSpecRemoved             56                       # Number of squashed non-spec instructions that were removed
system.cpu.iq.iqSquashedOperandsExamined       516348                       # Number of squashed operands that are examined and possibly removed from graph
system.cpu.iq.issued_per_cycle::samples       1509353                       # Number of insts issued each cycle
system.cpu.iq.issued_per_cycle::mean         1.010043                       # Number of insts issued each cycle
system.cpu.iq.issued_per_cycle::stdev        1.580868                       # Number of insts issued each cycle
system.cpu.iq.issued_per_cycle::underflows            0      0.00%      0.00% # Number of insts issued each cycle
system.cpu.iq.issued_per_cycle::0              899218     59.58%     59.58% # Number of insts issued each cycle
system.cpu.iq.issued_per_cycle::1              195017     12.92%     72.50% # Number of insts issued each cycle
system.cpu.iq.issued_per_cycle::2              184949     12.25%     84.75% # Number of insts issued each cycle
system.cpu.iq.issued_per_cycle::3              100346      6.65%     91.40% # Number of insts issued each cycle
system.cpu.iq.issued_per_cycle::4               44532      2.95%     94.35% # Number of insts issued each cycle
system.cpu.iq.issued_per_cycle::5               47884      3.17%     97.52% # Number of insts issued each cycle
system.cpu.iq.issued_per_cycle::6               22005      1.46%     98.98% # Number of insts issued each cycle
system.cpu.iq.issued_per_cycle::7               14236      0.94%     99.92% # Number of insts issued each cycle
system.cpu.iq.issued_per_cycle::8                1166      0.08%    100.00% # Number of insts issued each cycle
system.cpu.iq.issued_per_cycle::overflows            0      0.00%    100.00% # Number of insts issued each cycle
system.cpu.iq.issued_per_cycle::min_value            0                       # Number of insts issued each cycle
system.cpu.iq.issued_per_cycle::max_value            8                       # Number of insts issued each cycle
system.cpu.iq.issued_per_cycle::total         1509353                       # Number of insts issued each cycle
system.cpu.iq.rate                           0.978993                       # Inst issue rate
system.cpu.iq.vec_alu_accesses                   1321                       # Number of vector alu accesses
system.cpu.iq.vec_inst_queue_reads               2601                       # Number of vector instruction queue reads
system.cpu.iq.vec_inst_queue_wakeup_accesses         1202                       # Number of vector instruction queue wakeup accesses
system.cpu.iq.vec_inst_queue_writes              1583                       # Number of vector instruction queue writes
system.cpu.itb.accesses                             0                       # DTB accesses
system.cpu.itb.align_faults                         0                       # Number of TLB faults due to alignment restrictions
system.cpu.itb.domain_faults                        0                       # Number of TLB faults due to domain restrictions
system.cpu.itb.flush_entries                        0                       # Number of entries that have been flushed from TLB
system.cpu.itb.flush_tlb                            0                       # Number of times complete TLB was flushed
system.cpu.itb.flush_tlb_asid                       0                       # Number of times TLB was flushed by ASID
system.cpu.itb.flush_tlb_mva                        0                       # Number of times TLB was flushed by MVA
system.cpu.itb.flush_tlb_mva_asid                   0                       # Number of times TLB was flushed by MVA & ASID
system.cpu.itb.hits                                 0                       # DTB hits
system.cpu.itb.inst_accesses                        0                       # ITB inst accesses
system.cpu.itb.inst_hits                            0                       # ITB inst hits
system.cpu.itb.inst_misses                          0                       # ITB inst misses
system.cpu.itb.misses                               0                       # DTB misses
system.cpu.itb.perms_faults                         0                       # Number of TLB faults due to permissions restrictions
system.cpu.itb.prefetch_faults                      0                       # Number of TLB faults due to prefetch
system.cpu.itb.read_accesses                        0                       # DTB read accesses
system.cpu.itb.read_hits                            0                       # DTB read hits
system.cpu.itb.read_misses                          0                       # DTB read misses
system.cpu.itb.stage2_mmu.stage2_tlb.accesses            0                       # DTB accesses
system.cpu.itb.stage2_mmu.stage2_tlb.align_faults            0                       # Number of TLB faults due to alignment restrictions
system.cpu.itb.stage2_mmu.stage2_tlb.domain_faults            0                       # Number of TLB faults due to domain restrictions
system.cpu.itb.stage2_mmu.stage2_tlb.flush_entries            0                       # Number of entries that have been flushed from TLB
system.cpu.itb.stage2_mmu.stage2_tlb.flush_tlb            0                       # Number of times complete TLB was flushed
system.cpu.itb.stage2_mmu.stage2_tlb.flush_tlb_asid            0                       # Number of times TLB was flushed by ASID
system.cpu.itb.stage2_mmu.stage2_tlb.flush_tlb_mva            0                       # Number of times TLB was flushed by MVA
system.cpu.itb.stage2_mmu.stage2_tlb.flush_tlb_mva_asid            0                       # Number of times TLB was flushed by MVA & ASID
system.cpu.itb.stage2_mmu.stage2_tlb.hits            0                       # DTB hits
system.cpu.itb.stage2_mmu.stage2_tlb.inst_accesses            0                       # ITB inst accesses
system.cpu.itb.stage2_mmu.stage2_tlb.inst_hits            0                       # ITB inst hits
system.cpu.itb.stage2_mmu.stage2_tlb.inst_misses            0                       # ITB inst misses
system.cpu.itb.stage2_mmu.stage2_tlb.misses            0                       # DTB misses
system.cpu.itb.stage2_mmu.stage2_tlb.perms_faults            0                       # Number of TLB faults due to permissions restrictions
system.cpu.itb.stage2_mmu.stage2_tlb.prefetch_faults            0                       # Number of TLB faults due to prefetch
system.cpu.itb.stage2_mmu.stage2_tlb.read_accesses            0                       # DTB read accesses
system.cpu.itb.stage2_mmu.stage2_tlb.read_hits            0                       # DTB read hits
system.cpu.itb.stage2_mmu.stage2_tlb.read_misses            0                       # DTB read misses
system.cpu.itb.stage2_mmu.stage2_tlb.walker.walkRequestOrigin_Requested::Data            0                       # Table walker requests started/completed, data/inst
system.cpu.itb.stage2_mmu.stage2_tlb.walker.walkRequestOrigin_Requested::Inst            0                       # Table walker requests started/completed, data/inst
system.cpu.itb.stage2_mmu.stage2_tlb.walker.walkRequestOrigin_Requested::total            0                       # Table walker requests started/completed, data/inst
system.cpu.itb.stage2_mmu.stage2_tlb.walker.walkRequestOrigin_Completed::Data            0                       # Table walker requests started/completed, data/inst
system.cpu.itb.stage2_mmu.stage2_tlb.walker.walkRequestOrigin_Completed::Inst            0                       # Table walker requests started/completed, data/inst
system.cpu.itb.stage2_mmu.stage2_tlb.walker.walkRequestOrigin_Completed::total            0                       # Table walker requests started/completed, data/inst
system.cpu.itb.stage2_mmu.stage2_tlb.walker.walkRequestOrigin::total            0                       # Table walker requests started/completed, data/inst
system.cpu.itb.stage2_mmu.stage2_tlb.walker.walks            0                       # Table walker walks requested
system.cpu.itb.stage2_mmu.stage2_tlb.write_accesses            0                       # DTB write accesses
system.cpu.itb.stage2_mmu.stage2_tlb.write_hits            0                       # DTB write hits
system.cpu.itb.stage2_mmu.stage2_tlb.write_misses            0                       # DTB write misses
system.cpu.itb.walker.walkRequestOrigin_Requested::Data            0                       # Table walker requests started/completed, data/inst
system.cpu.itb.walker.walkRequestOrigin_Requested::Inst            0                       # Table walker requests started/completed, data/inst
system.cpu.itb.walker.walkRequestOrigin_Requested::total            0                       # Table walker requests started/completed, data/inst
system.cpu.itb.walker.walkRequestOrigin_Completed::Data            0                       # Table walker requests started/completed, data/inst
system.cpu.itb.walker.walkRequestOrigin_Completed::Inst            0                       # Table walker requests started/completed, data/inst
system.cpu.itb.walker.walkRequestOrigin_Completed::total            0                       # Table walker requests started/completed, data/inst
system.cpu.itb.walker.walkRequestOrigin::total            0                       # Table walker requests started/completed, data/inst
system.cpu.itb.walker.walks                         0                       # Table walker walks requested
system.cpu.itb.write_accesses                       0                       # DTB write accesses
system.cpu.itb.write_hits                           0                       # DTB write hits
system.cpu.itb.write_misses                         0                       # DTB write misses
system.cpu.memDep0.conflictingLoads              4880                       # Number of conflicting loads.
system.cpu.memDep0.conflictingStores              688                       # Number of conflicting stores.
system.cpu.memDep0.insertedLoads               275734                       # Number of loads inserted to the mem dependence unit.
system.cpu.memDep0.insertedStores              229520                       # Number of stores inserted to the mem dependence unit.
system.cpu.misc_regfile_reads                  926737                       # number of misc regfile reads
system.cpu.misc_regfile_writes                    569                       # number of misc regfile writes
system.cpu.numCycles                          1557224                       # number of cpu cycles simulated
system.cpu.numWorkItemsCompleted                    0                       # number of work items this cpu completed
system.cpu.numWorkItemsStarted                      0                       # number of work items this cpu started
system.cpu.rename.BlockCycles                  439910                       # Number of cycles rename is blocking
system.cpu.rename.CommittedMaps                914731                       # Number of HB maps that are committed
system.cpu.rename.IQFullEvents                 118027                       # Number of times rename has blocked due to IQ full
system.cpu.rename.IdleCycles                   137564                       # Number of cycles rename is idle
system.cpu.rename.ROBFullEvents                    13                       # Number of times rename has blocked due to ROB full
system.cpu.rename.RenameLookups               2739704                       # Number of register rename lookups that rename has made
system.cpu.rename.RenamedInsts                1723192                       # Number of instructions processed by rename
system.cpu.rename.RenamedOperands             1505584                       # Number of destination operands rename has renamed
system.cpu.rename.RunCycles                    239455                       # Number of cycles rename is running
system.cpu.rename.SQFullEvents                 549742                       # Number of times rename has blocked due to SQ full
system.cpu.rename.SquashCycles                   4962                       # Number of cycles rename is squashing
system.cpu.rename.UnblockCycles                674740                       # Number of cycles rename is unblocking
system.cpu.rename.UndoneMaps                   590796                       # Number of HB maps that are undone due to squashing
system.cpu.rename.int_rename_lookups          2651267                       # Number of integer rename lookups
system.cpu.rename.serializeStallCycles          12722                       # count of cycles rename stalled for serializing inst
system.cpu.rename.serializingInsts                400                       # count of serializing insts renamed
system.cpu.rename.skidInsts                    278771                       # count of insts added to the skid buffer
system.cpu.rename.tempSerializingInsts            242                       # count of temporary serializing insts renamed
system.cpu.rename.vec_rename_lookups             1686                       # Number of vector rename lookups
system.cpu.rob.rob_reads                      2876285                       # The number of ROB reads
system.cpu.rob.rob_writes                     3162032                       # The number of ROB writes
system.cpu.timesIdled                             462                       # Number of times that the entire CPU went into an idle state and unscheduled itself
system.cpu.vec_regfile_reads                     1489                       # number of vector regfile reads
system.cpu.vec_regfile_writes                     667                       # number of vector regfile writes
system.cpu.workload.numSyscalls                    26                       # Number of system calls
system.membus.snoop_filter.hit_multi_requests            0                       # Number of requests hitting in the snoop filter with multiple (>1) holders of the requested data.
system.membus.snoop_filter.hit_multi_snoops            0                       # Number of snoops hitting in the snoop filter with multiple (>1) holders of the requested data.
system.membus.snoop_filter.hit_single_requests        13054                       # Number of requests hitting in the snoop filter with a single holder of the requested data.
system.membus.snoop_filter.hit_single_snoops            0                       # Number of snoops hitting in the snoop filter with a single holder of the requested data.
system.membus.snoop_filter.tot_requests         29017                       # Total number of requests made to the snoop filter.
system.membus.snoop_filter.tot_snoops               0                       # Total number of snoops made to the snoop filter.
system.tol2bus.snoop_filter.hit_multi_requests            0                       # Number of requests hitting in the snoop filter with multiple (>1) holders of the requested data.
system.tol2bus.snoop_filter.hit_multi_snoops            0                       # Number of snoops hitting in the snoop filter with multiple (>1) holders of the requested data.
system.tol2bus.snoop_filter.hit_single_requests        15246                       # Number of requests hitting in the snoop filter with a single holder of the requested data.
system.tol2bus.snoop_filter.hit_single_snoops           33                       # Number of snoops hitting in the snoop filter with a single holder of the requested data.
system.tol2bus.snoop_filter.tot_requests        31348                       # Total number of requests made to the snoop filter.
system.tol2bus.snoop_filter.tot_snoops             33                       # Total number of snoops made to the snoop filter.
system.membus.trans_dist::ReadResp                753                       # Transaction distribution
system.membus.trans_dist::WritebackDirty        13041                       # Transaction distribution
system.membus.trans_dist::CleanEvict               13                       # Transaction distribution
system.membus.trans_dist::ReadExReq             15203                       # Transaction distribution
system.membus.trans_dist::ReadExResp            15201                       # Transaction distribution
system.membus.trans_dist::ReadSharedReq           753                       # Transaction distribution
system.membus.trans_dist::InvalidateReq             7                       # Transaction distribution
system.membus.pkt_count_system.l2.mem_side::system.mem_ctrls.port        44971                       # Packet count per connected master and slave (bytes)
system.membus.pkt_count::total                  44971                       # Packet count per connected master and slave (bytes)
system.membus.pkt_size_system.l2.mem_side::system.mem_ctrls.port      1855680                       # Cumulative packet size per connected master and slave (bytes)
system.membus.pkt_size::total                 1855680                       # Cumulative packet size per connected master and slave (bytes)
system.membus.snoops                                0                       # Total snoops (count)
system.membus.snoopTraffic                          0                       # Total snoop traffic (bytes)
system.membus.snoop_fanout::samples             15963                       # Request fanout histogram
system.membus.snoop_fanout::mean                    0                       # Request fanout histogram
system.membus.snoop_fanout::stdev                   0                       # Request fanout histogram
system.membus.snoop_fanout::underflows              0      0.00%      0.00% # Request fanout histogram
system.membus.snoop_fanout::0                   15963    100.00%    100.00% # Request fanout histogram
system.membus.snoop_fanout::1                       0      0.00%    100.00% # Request fanout histogram
system.membus.snoop_fanout::overflows               0      0.00%    100.00% # Request fanout histogram
system.membus.snoop_fanout::min_value               0                       # Request fanout histogram
system.membus.snoop_fanout::max_value               0                       # Request fanout histogram
system.membus.snoop_fanout::total               15963                       # Request fanout histogram
system.membus.reqLayer0.occupancy            84670000                       # Layer occupancy (ticks)
system.membus.reqLayer0.utilization              10.9                       # Layer utilization (%)
system.membus.respLayer1.occupancy           83594000                       # Layer occupancy (ticks)
system.membus.respLayer1.utilization             10.7                       # Layer utilization (%)
system.membus.power_state.pwrStateResidencyTicks::UNDEFINED    778611500                       # Cumulative time (in ticks) in various power states
system.tol2bus.trans_dist::ReadResp               892                       # Transaction distribution
system.tol2bus.trans_dist::WritebackDirty        28067                       # Transaction distribution
system.tol2bus.trans_dist::WritebackClean          211                       # Transaction distribution
system.tol2bus.trans_dist::CleanEvict              54                       # Transaction distribution
system.tol2bus.trans_dist::ReadExReq            15204                       # Transaction distribution
system.tol2bus.trans_dist::ReadExResp           15202                       # Transaction distribution
system.tol2bus.trans_dist::ReadCleanReq           752                       # Transaction distribution
system.tol2bus.trans_dist::ReadSharedReq          140                       # Transaction distribution
system.tol2bus.trans_dist::InvalidateReq            7                       # Transaction distribution
system.tol2bus.trans_dist::InvalidateResp            7                       # Transaction distribution
system.tol2bus.pkt_count_system.cpu.icache.mem_side::system.l2.cpu_side         1715                       # Packet count per connected master and slave (bytes)
system.tol2bus.pkt_count_system.cpu.dcache.mem_side::system.l2.cpu_side        45734                       # Packet count per connected master and slave (bytes)
system.tol2bus.pkt_count::total                 47449                       # Packet count per connected master and slave (bytes)
system.tol2bus.pkt_size_system.cpu.icache.mem_side::system.l2.cpu_side        61632                       # Cumulative packet size per connected master and slave (bytes)
system.tol2bus.pkt_size_system.cpu.dcache.mem_side::system.l2.cpu_side      1943552                       # Cumulative packet size per connected master and slave (bytes)
system.tol2bus.pkt_size::total                2005184                       # Cumulative packet size per connected master and slave (bytes)
system.tol2bus.snoops                           13087                       # Total snoops (count)
system.tol2bus.snoopTraffic                    834624                       # Total snoop traffic (bytes)
system.tol2bus.snoop_fanout::samples            29190                       # Request fanout histogram
system.tol2bus.snoop_fanout::mean            0.001165                       # Request fanout histogram
system.tol2bus.snoop_fanout::stdev           0.034110                       # Request fanout histogram
system.tol2bus.snoop_fanout::underflows             0      0.00%      0.00% # Request fanout histogram
system.tol2bus.snoop_fanout::0                  29156     99.88%     99.88% # Request fanout histogram
system.tol2bus.snoop_fanout::1                     34      0.12%    100.00% # Request fanout histogram
system.tol2bus.snoop_fanout::2                      0      0.00%    100.00% # Request fanout histogram
system.tol2bus.snoop_fanout::overflows              0      0.00%    100.00% # Request fanout histogram
system.tol2bus.snoop_fanout::min_value              0                       # Request fanout histogram
system.tol2bus.snoop_fanout::max_value              1                       # Request fanout histogram
system.tol2bus.snoop_fanout::total              29190                       # Request fanout histogram
system.tol2bus.reqLayer0.occupancy           30911000                       # Layer occupancy (ticks)
system.tol2bus.reqLayer0.utilization              4.0                       # Layer utilization (%)
system.tol2bus.respLayer1.occupancy          23016500                       # Layer occupancy (ticks)
system.tol2bus.respLayer1.utilization             3.0                       # Layer utilization (%)
system.tol2bus.respLayer0.occupancy           1128000                       # Layer occupancy (ticks)
system.tol2bus.respLayer0.utilization             0.1                       # Layer utilization (%)
system.tol2bus.power_state.pwrStateResidencyTicks::UNDEFINED    778611500                       # Cumulative time (in ticks) in various power states
system.voltage_domain.voltage                       1                       # Voltage in Volts
system.clk_domain.clock                          1000                       # Clock period in ticks
system.l2.demand_hits::.cpu.inst                  139                       # number of demand (read+write) hits
system.l2.demand_hits::.cpu.data                    1                       # number of demand (read+write) hits
system.l2.demand_hits::total                      140                       # number of demand (read+write) hits
system.l2.overall_hits::.cpu.inst                 139                       # number of overall hits
system.l2.overall_hits::.cpu.data                   1                       # number of overall hits
system.l2.overall_hits::total                     140                       # number of overall hits
system.l2.demand_misses::.cpu.inst                613                       # number of demand (read+write) misses
system.l2.demand_misses::.cpu.data              15343                       # number of demand (read+write) misses
system.l2.demand_misses::total                  15956                       # number of demand (read+write) misses
system.l2.overall_misses::.cpu.inst               613                       # number of overall misses
system.l2.overall_misses::.cpu.data             15343                       # number of overall misses
system.l2.overall_misses::total                 15956                       # number of overall misses
system.l2.demand_miss_latency::.cpu.inst     47799000                       # number of demand (read+write) miss cycles
system.l2.demand_miss_latency::.cpu.data   1342122500                       # number of demand (read+write) miss cycles
system.l2.demand_miss_latency::total       1389921500                       # number of demand (read+write) miss cycles
system.l2.overall_miss_latency::.cpu.inst     47799000                       # number of overall miss cycles
system.l2.overall_miss_latency::.cpu.data   1342122500                       # number of overall miss cycles
system.l2.overall_miss_latency::total      1389921500                       # number of overall miss cycles
system.l2.demand_accesses::.cpu.inst              752                       # number of demand (read+write) accesses
system.l2.demand_accesses::.cpu.data            15344                       # number of demand (read+write) accesses
system.l2.demand_accesses::total                16096                       # number of demand (read+write) accesses
system.l2.overall_accesses::.cpu.inst             752                       # number of overall (read+write) accesses
system.l2.overall_accesses::.cpu.data           15344                       # number of overall (read+write) accesses
system.l2.overall_accesses::total               16096                       # number of overall (read+write) accesses
system.l2.demand_miss_rate::.cpu.inst        0.815160                       # miss rate for demand accesses
system.l2.demand_miss_rate::.cpu.data        0.999935                       # miss rate for demand accesses
system.l2.demand_miss_rate::total            0.991302                       # miss rate for demand accesses
system.l2.overall_miss_rate::.cpu.inst       0.815160                       # miss rate for overall accesses
system.l2.overall_miss_rate::.cpu.data       0.999935                       # miss rate for overall accesses
system.l2.overall_miss_rate::total           0.991302                       # miss rate for overall accesses
system.l2.demand_avg_miss_latency::.cpu.inst 77975.530179                       # average overall miss latency
system.l2.demand_avg_miss_latency::.cpu.data 87474.581242                       # average overall miss latency
system.l2.demand_avg_miss_latency::total 87109.645275                       # average overall miss latency
system.l2.overall_avg_miss_latency::.cpu.inst 77975.530179                       # average overall miss latency
system.l2.overall_avg_miss_latency::.cpu.data 87474.581242                       # average overall miss latency
system.l2.overall_avg_miss_latency::total 87109.645275                       # average overall miss latency
system.l2.blocked_cycles::no_mshrs                  0                       # number of cycles access was blocked
system.l2.blocked_cycles::no_targets                0                       # number of cycles access was blocked
system.l2.blocked::no_mshrs                         0                       # number of cycles access was blocked
system.l2.blocked::no_targets                       0                       # number of cycles access was blocked
system.l2.avg_blocked_cycles::no_mshrs            nan                       # average number of cycles each access was blocked
system.l2.avg_blocked_cycles::no_targets          nan                       # average number of cycles each access was blocked
system.l2.writebacks::.writebacks               13041                       # number of writebacks
system.l2.writebacks::total                     13041                       # number of writebacks
system.l2.demand_mshr_misses::.cpu.inst           613                       # number of demand (read+write) MSHR misses
system.l2.demand_mshr_misses::.cpu.data         15343                       # number of demand (read+write) MSHR misses
system.l2.demand_mshr_misses::total             15956                       # number of demand (read+write) MSHR misses
system.l2.overall_mshr_misses::.cpu.inst          613                       # number of overall MSHR misses
system.l2.overall_mshr_misses::.cpu.data        15343                       # number of overall MSHR misses
system.l2.overall_mshr_misses::total            15956                       # number of overall MSHR misses
system.l2.demand_mshr_miss_latency::.cpu.inst     41669000                       # number of demand (read+write) MSHR miss cycles
system.l2.demand_mshr_miss_latency::.cpu.data   1188712500                       # number of demand (read+write) MSHR miss cycles
system.l2.demand_mshr_miss_latency::total   1230381500                       # number of demand (read+write) MSHR miss cycles
system.l2.overall_mshr_miss_latency::.cpu.inst     41669000                       # number of overall MSHR miss cycles
system.l2.overall_mshr_miss_latency::.cpu.data   1188712500                       # number of overall MSHR miss cycles
system.l2.overall_mshr_miss_latency::total   1230381500                       # number of overall MSHR miss cycles
system.l2.demand_mshr_miss_rate::.cpu.inst     0.815160                       # mshr miss rate for demand accesses
system.l2.demand_mshr_miss_rate::.cpu.data     0.999935                       # mshr miss rate for demand accesses
system.l2.demand_mshr_miss_rate::total       0.991302                       # mshr miss rate for demand accesses
system.l2.overall_mshr_miss_rate::.cpu.inst     0.815160                       # mshr miss rate for overall accesses
system.l2.overall_mshr_miss_rate::.cpu.data     0.999935                       # mshr miss rate for overall accesses
system.l2.overall_mshr_miss_rate::total      0.991302                       # mshr miss rate for overall accesses
system.l2.demand_avg_mshr_miss_latency::.cpu.inst 67975.530179                       # average overall mshr miss latency
system.l2.demand_avg_mshr_miss_latency::.cpu.data 77475.884768                       # average overall mshr miss latency
system.l2.demand_avg_mshr_miss_latency::total 77110.898721                       # average overall mshr miss latency
system.l2.overall_avg_mshr_miss_latency::.cpu.inst 67975.530179                       # average overall mshr miss latency
system.l2.overall_avg_mshr_miss_latency::.cpu.data 77475.884768                       # average overall mshr miss latency
system.l2.overall_avg_mshr_miss_latency::total 77110.898721                       # average overall mshr miss latency
system.l2.replacements                          13087                       # number of replacements
system.l2.WritebackDirty_hits::.writebacks        15026                       # number of WritebackDirty hits
system.l2.WritebackDirty_hits::total            15026                       # number of WritebackDirty hits
system.l2.WritebackDirty_accesses::.writebacks        15026                       # number of WritebackDirty accesses(hits+misses)
system.l2.WritebackDirty_accesses::total        15026                       # number of WritebackDirty accesses(hits+misses)
system.l2.WritebackClean_hits::.writebacks          211                       # number of WritebackClean hits
system.l2.WritebackClean_hits::total              211                       # number of WritebackClean hits
system.l2.WritebackClean_accesses::.writebacks          211                       # number of WritebackClean accesses(hits+misses)
system.l2.WritebackClean_accesses::total          211                       # number of WritebackClean accesses(hits+misses)
system.l2.ReadExReq_hits::.cpu.data                 1                       # number of ReadExReq hits
system.l2.ReadExReq_hits::total                     1                       # number of ReadExReq hits
system.l2.ReadExReq_misses::.cpu.data           15203                       # number of ReadExReq misses
system.l2.ReadExReq_misses::total               15203                       # number of ReadExReq misses
system.l2.ReadExReq_miss_latency::.cpu.data   1330307500                       # number of ReadExReq miss cycles
system.l2.ReadExReq_miss_latency::total    1330307500                       # number of ReadExReq miss cycles
system.l2.ReadExReq_accesses::.cpu.data         15204                       # number of ReadExReq accesses(hits+misses)
system.l2.ReadExReq_accesses::total             15204                       # number of ReadExReq accesses(hits+misses)
system.l2.ReadExReq_miss_rate::.cpu.data     0.999934                       # miss rate for ReadExReq accesses
system.l2.ReadExReq_miss_rate::total         0.999934                       # miss rate for ReadExReq accesses
system.l2.ReadExReq_avg_miss_latency::.cpu.data 87502.959942                       # average ReadExReq miss latency
system.l2.ReadExReq_avg_miss_latency::total 87502.959942                       # average ReadExReq miss latency
system.l2.ReadExReq_mshr_misses::.cpu.data        15203                       # number of ReadExReq MSHR misses
system.l2.ReadExReq_mshr_misses::total          15203                       # number of ReadExReq MSHR misses
system.l2.ReadExReq_mshr_miss_latency::.cpu.data   1178297500                       # number of ReadExReq MSHR miss cycles
system.l2.ReadExReq_mshr_miss_latency::total   1178297500                       # number of ReadExReq MSHR miss cycles
system.l2.ReadExReq_mshr_miss_rate::.cpu.data     0.999934                       # mshr miss rate for ReadExReq accesses
system.l2.ReadExReq_mshr_miss_rate::total     0.999934                       # mshr miss rate for ReadExReq accesses
system.l2.ReadExReq_avg_mshr_miss_latency::.cpu.data 77504.275472                       # average ReadExReq mshr miss latency
system.l2.ReadExReq_avg_mshr_miss_latency::total 77504.275472                       # average ReadExReq mshr miss latency
system.l2.ReadCleanReq_hits::.cpu.inst            139                       # number of ReadCleanReq hits
system.l2.ReadCleanReq_hits::total                139                       # number of ReadCleanReq hits
system.l2.ReadCleanReq_misses::.cpu.inst          613                       # number of ReadCleanReq misses
system.l2.ReadCleanReq_misses::total              613                       # number of ReadCleanReq misses
system.l2.ReadCleanReq_miss_latency::.cpu.inst     47799000                       # number of ReadCleanReq miss cycles
system.l2.ReadCleanReq_miss_latency::total     47799000                       # number of ReadCleanReq miss cycles
system.l2.ReadCleanReq_accesses::.cpu.inst          752                       # number of ReadCleanReq accesses(hits+misses)
system.l2.ReadCleanReq_accesses::total            752                       # number of ReadCleanReq accesses(hits+misses)
system.l2.ReadCleanReq_miss_rate::.cpu.inst     0.815160                       # miss rate for ReadCleanReq accesses
system.l2.ReadCleanReq_miss_rate::total      0.815160                       # miss rate for ReadCleanReq accesses
system.l2.ReadCleanReq_avg_miss_latency::.cpu.inst 77975.530179                       # average ReadCleanReq miss latency
system.l2.ReadCleanReq_avg_miss_latency::total 77975.530179                       # average ReadCleanReq miss latency
system.l2.ReadCleanReq_mshr_misses::.cpu.inst          613                       # number of ReadCleanReq MSHR misses
system.l2.ReadCleanReq_mshr_misses::total          613                       # number of ReadCleanReq MSHR misses
system.l2.ReadCleanReq_mshr_miss_latency::.cpu.inst     41669000                       # number of ReadCleanReq MSHR miss cycles
system.l2.ReadCleanReq_mshr_miss_latency::total     41669000                       # number of ReadCleanReq MSHR miss cycles
system.l2.ReadCleanReq_mshr_miss_rate::.cpu.inst     0.815160                       # mshr miss rate for ReadCleanReq accesses
system.l2.ReadCleanReq_mshr_miss_rate::total     0.815160                       # mshr miss rate for ReadCleanReq accesses
[...]
system.cpu.dcache.overall_misses::total        128979                       # number of overall misses
system.cpu.dcache.demand_miss_latency::.cpu.data   9624493018                       # number of demand (read+write) miss cycles
system.cpu.dcache.demand_miss_latency::total   9624493018                       # number of demand (read+write) miss cycles
system.cpu.dcache.overall_miss_latency::.cpu.data   9624493018                       # number of overall miss cycles
system.cpu.dcache.overall_miss_latency::total   9624493018                       # number of overall miss cycles
system.cpu.dcache.demand_accesses::.cpu.data       407742                       # number of demand (read+write) accesses
system.cpu.dcache.demand_accesses::total       407742                       # number of demand (read+write) accesses
system.cpu.dcache.overall_accesses::.cpu.data       407798                       # number of overall (read+write) accesses
system.cpu.dcache.overall_accesses::total       407798                       # number of overall (read+write) accesses
system.cpu.dcache.demand_miss_rate::.cpu.data     0.316315                       # miss rate for demand accesses
system.cpu.dcache.demand_miss_rate::total     0.316315                       # miss rate for demand accesses
system.cpu.dcache.overall_miss_rate::.cpu.data     0.316282                       # miss rate for overall accesses
system.cpu.dcache.overall_miss_rate::total     0.316282                       # miss rate for overall accesses
system.cpu.dcache.demand_avg_miss_latency::.cpu.data 74622.934817                       # average overall miss latency
system.cpu.dcache.demand_avg_miss_latency::total 74622.934817                       # average overall miss latency
system.cpu.dcache.overall_avg_miss_latency::.cpu.data 74620.620551                       # average overall miss latency
system.cpu.dcache.overall_avg_miss_latency::total 74620.620551                       # average overall miss latency
system.cpu.dcache.blocked_cycles::no_mshrs       164085                       # number of cycles access was blocked
system.cpu.dcache.blocked_cycles::no_targets            0                       # number of cycles access was blocked
system.cpu.dcache.blocked::no_mshrs              3008                       # number of cycles access was blocked
system.cpu.dcache.blocked::no_targets               0                       # number of cycles access was blocked
system.cpu.dcache.avg_blocked_cycles::no_mshrs    54.549535                       # average number of cycles each access was blocked
system.cpu.dcache.avg_blocked_cycles::no_targets          nan                       # average number of cycles each access was blocked
system.cpu.dcache.writebacks::.writebacks        15026                       # number of writebacks
system.cpu.dcache.writebacks::total             15026                       # number of writebacks
system.cpu.dcache.demand_mshr_hits::.cpu.data       113628                       # number of demand (read+write) MSHR hits
system.cpu.dcache.demand_mshr_hits::total       113628                       # number of demand (read+write) MSHR hits
system.cpu.dcache.overall_mshr_hits::.cpu.data       113628                       # number of overall MSHR hits
system.cpu.dcache.overall_mshr_hits::total       113628                       # number of overall MSHR hits
system.cpu.dcache.demand_mshr_misses::.cpu.data        15347                       # number of demand (read+write) MSHR misses
system.cpu.dcache.demand_mshr_misses::total        15347                       # number of demand (read+write) MSHR misses
system.cpu.dcache.overall_mshr_misses::.cpu.data        15350                       # number of overall MSHR misses
system.cpu.dcache.overall_mshr_misses::total        15350                       # number of overall MSHR misses
system.cpu.dcache.demand_mshr_miss_latency::.cpu.data   1365043496                       # number of demand (read+write) MSHR miss cycles
system.cpu.dcache.demand_mshr_miss_latency::total   1365043496                       # number of demand (read+write) MSHR miss cycles
system.cpu.dcache.overall_mshr_miss_latency::.cpu.data   1365277496                       # number of overall MSHR miss cycles
system.cpu.dcache.overall_mshr_miss_latency::total   1365277496                       # number of overall MSHR miss cycles
system.cpu.dcache.demand_mshr_miss_rate::.cpu.data     0.037639                       # mshr miss rate for demand accesses
system.cpu.dcache.demand_mshr_miss_rate::total     0.037639                       # mshr miss rate for demand accesses
system.cpu.dcache.overall_mshr_miss_rate::.cpu.data     0.037641                       # mshr miss rate for overall accesses
system.cpu.dcache.overall_mshr_miss_rate::total     0.037641                       # mshr miss rate for overall accesses
system.cpu.dcache.demand_avg_mshr_miss_latency::.cpu.data 88945.298495                       # average overall mshr miss latency
system.cpu.dcache.demand_avg_mshr_miss_latency::total 88945.298495                       # average overall mshr miss latency
system.cpu.dcache.overall_avg_mshr_miss_latency::.cpu.data 88943.159349                       # average overall mshr miss latency
system.cpu.dcache.overall_avg_mshr_miss_latency::total 88943.159349                       # average overall mshr miss latency
system.cpu.dcache.replacements                  15034                       # number of replacements
system.cpu.dcache.ReadReq_hits::.cpu.data       273622                       # number of ReadReq hits
system.cpu.dcache.ReadReq_hits::total          273622                       # number of ReadReq hits
system.cpu.dcache.ReadReq_misses::.cpu.data          300                       # number of ReadReq misses
system.cpu.dcache.ReadReq_misses::total           300                       # number of ReadReq misses
system.cpu.dcache.ReadReq_miss_latency::.cpu.data     23599500                       # number of ReadReq miss cycles
system.cpu.dcache.ReadReq_miss_latency::total     23599500                       # number of ReadReq miss cycles
system.cpu.dcache.ReadReq_accesses::.cpu.data       273922                       # number of ReadReq accesses(hits+misses)
system.cpu.dcache.ReadReq_accesses::total       273922                       # number of ReadReq accesses(hits+misses)
system.cpu.dcache.ReadReq_miss_rate::.cpu.data     0.001095                       # miss rate for ReadReq accesses
system.cpu.dcache.ReadReq_miss_rate::total     0.001095                       # miss rate for ReadReq accesses
system.cpu.dcache.ReadReq_avg_miss_latency::.cpu.data        78665                       # average ReadReq miss latency
system.cpu.dcache.ReadReq_avg_miss_latency::total        78665                       # average ReadReq miss latency
system.cpu.dcache.ReadReq_mshr_hits::.cpu.data          164                       # number of ReadReq MSHR hits
system.cpu.dcache.ReadReq_mshr_hits::total          164                       # number of ReadReq MSHR hits
system.cpu.dcache.ReadReq_mshr_misses::.cpu.data          136                       # number of ReadReq MSHR misses
system.cpu.dcache.ReadReq_mshr_misses::total          136                       # number of ReadReq MSHR misses
system.cpu.dcache.ReadReq_mshr_miss_latency::.cpu.data     11703000                       # number of ReadReq MSHR miss cycles
system.cpu.dcache.ReadReq_mshr_miss_latency::total     11703000                       # number of ReadReq MSHR miss cycles
system.cpu.dcache.ReadReq_mshr_miss_rate::.cpu.data     0.000496                       # mshr miss rate for ReadReq accesses
system.cpu.dcache.ReadReq_mshr_miss_rate::total     0.000496                       # mshr miss rate for ReadReq accesses
system.cpu.dcache.ReadReq_avg_mshr_miss_latency::.cpu.data 86051.470588                       # average ReadReq mshr miss latency
system.cpu.dcache.ReadReq_avg_mshr_miss_latency::total 86051.470588                       # average ReadReq mshr miss latency
system.cpu.dcache.WriteReq_hits::.cpu.data         5145                       # number of WriteReq hits
system.cpu.dcache.WriteReq_hits::total           5145                       # number of WriteReq hits
system.cpu.dcache.WriteReq_misses::.cpu.data       128668                       # number of WriteReq misses
system.cpu.dcache.WriteReq_misses::total       128668                       # number of WriteReq misses
system.cpu.dcache.WriteReq_miss_latency::.cpu.data   9600671020                       # number of WriteReq miss cycles
system.cpu.dcache.WriteReq_miss_latency::total   9600671020                       # number of WriteReq miss cycles
system.cpu.dcache.WriteReq_accesses::.cpu.data       133813                       # number of WriteReq accesses(hits+misses)
system.cpu.dcache.WriteReq_accesses::total       133813                       # number of WriteReq accesses(hits+misses)
system.cpu.dcache.WriteReq_miss_rate::.cpu.data     0.961551                       # miss rate for WriteReq accesses
system.cpu.dcache.WriteReq_miss_rate::total     0.961551                       # miss rate for WriteReq accesses
system.cpu.dcache.WriteReq_avg_miss_latency::.cpu.data 74615.840924                       # average WriteReq miss latency
system.cpu.dcache.WriteReq_avg_miss_latency::total 74615.840924                       # average WriteReq miss latency
system.cpu.dcache.WriteReq_mshr_hits::.cpu.data       113464                       # number of WriteReq MSHR hits
system.cpu.dcache.WriteReq_mshr_hits::total       113464                       # number of WriteReq MSHR hits
system.cpu.dcache.WriteReq_mshr_misses::.cpu.data        15204                       # number of WriteReq MSHR misses
system.cpu.dcache.WriteReq_mshr_misses::total        15204                       # number of WriteReq MSHR misses
system.cpu.dcache.WriteReq_mshr_miss_latency::.cpu.data   1353124998                       # number of WriteReq MSHR miss cycles
system.cpu.dcache.WriteReq_mshr_miss_latency::total   1353124998                       # number of WriteReq MSHR miss cycles
system.cpu.dcache.WriteReq_mshr_miss_rate::.cpu.data     0.113621                       # mshr miss rate for WriteReq accesses
system.cpu.dcache.WriteReq_mshr_miss_rate::total     0.113621                       # mshr miss rate for WriteReq accesses
system.cpu.dcache.WriteReq_avg_mshr_miss_latency::.cpu.data 88997.960931                       # average WriteReq mshr miss latency
system.cpu.dcache.WriteReq_avg_mshr_miss_latency::total 88997.960931                       # average WriteReq mshr miss latency
system.cpu.dcache.SoftPFReq_hits::.cpu.data           52                       # number of SoftPFReq hits
system.cpu.dcache.SoftPFReq_hits::total            52                       # number of SoftPFReq hits
system.cpu.dcache.SoftPFReq_misses::.cpu.data            4                       # number of SoftPFReq misses
system.cpu.dcache.SoftPFReq_misses::total            4                       # number of SoftPFReq misses
system.cpu.dcache.SoftPFReq_accesses::.cpu.data           56                       # number of SoftPFReq accesses(hits+misses)
system.cpu.dcache.SoftPFReq_accesses::total           56                       # number of SoftPFReq accesses(hits+misses)
system.cpu.dcache.SoftPFReq_miss_rate::.cpu.data     0.071429                       # miss rate for SoftPFReq accesses
system.cpu.dcache.SoftPFReq_miss_rate::total     0.071429                       # miss rate for SoftPFReq accesses
system.cpu.dcache.SoftPFReq_mshr_misses::.cpu.data            3                       # number of SoftPFReq MSHR misses
system.cpu.dcache.SoftPFReq_mshr_misses::total            3                       # number of SoftPFReq MSHR misses
system.cpu.dcache.SoftPFReq_mshr_miss_latency::.cpu.data       234000                       # number of SoftPFReq MSHR miss cycles
system.cpu.dcache.SoftPFReq_mshr_miss_latency::total       234000                       # number of SoftPFReq MSHR miss cycles
system.cpu.dcache.SoftPFReq_mshr_miss_rate::.cpu.data     0.053571                       # mshr miss rate for SoftPFReq accesses
system.cpu.dcache.SoftPFReq_mshr_miss_rate::total     0.053571                       # mshr miss rate for SoftPFReq accesses
system.cpu.dcache.SoftPFReq_avg_mshr_miss_latency::.cpu.data        78000                       # average SoftPFReq mshr miss latency
system.cpu.dcache.SoftPFReq_avg_mshr_miss_latency::total        78000                       # average SoftPFReq mshr miss latency
system.cpu.dcache.WriteLineReq_misses::.cpu.data            7                       # number of WriteLineReq misses
system.cpu.dcache.WriteLineReq_misses::total            7                       # number of WriteLineReq misses
system.cpu.dcache.WriteLineReq_miss_latency::.cpu.data       222498                       # number of WriteLineReq miss cycles
system.cpu.dcache.WriteLineReq_miss_latency::total       222498                       # number of WriteLineReq miss cycles
system.cpu.dcache.WriteLineReq_accesses::.cpu.data            7                       # number of WriteLineReq accesses(hits+misses)
system.cpu.dcache.WriteLineReq_accesses::total            7                       # number of WriteLineReq accesses(hits+misses)
system.cpu.dcache.WriteLineReq_miss_rate::.cpu.data            1                       # miss rate for WriteLineReq accesses
system.cpu.dcache.WriteLineReq_miss_rate::total            1                       # miss rate for WriteLineReq accesses
system.cpu.dcache.WriteLineReq_avg_miss_latency::.cpu.data 31785.428571                       # average WriteLineReq miss latency
system.cpu.dcache.WriteLineReq_avg_miss_latency::total 31785.428571                       # average WriteLineReq miss latency
system.cpu.dcache.WriteLineReq_mshr_misses::.cpu.data            7                       # number of WriteLineReq MSHR misses
system.cpu.dcache.WriteLineReq_mshr_misses::total            7                       # number of WriteLineReq MSHR misses
system.cpu.dcache.WriteLineReq_mshr_miss_latency::.cpu.data       215498                       # number of WriteLineReq MSHR miss cycles
system.cpu.dcache.WriteLineReq_mshr_miss_latency::total       215498                       # number of WriteLineReq MSHR miss cycles
system.cpu.dcache.WriteLineReq_mshr_miss_rate::.cpu.data            1                       # mshr miss rate for WriteLineReq accesses
system.cpu.dcache.WriteLineReq_mshr_miss_rate::total            1                       # mshr miss rate for WriteLineReq accesses
system.cpu.dcache.WriteLineReq_avg_mshr_miss_latency::.cpu.data 30785.428571                       # average WriteLineReq mshr miss latency
system.cpu.dcache.WriteLineReq_avg_mshr_miss_latency::total 30785.428571                       # average WriteLineReq mshr miss latency
system.cpu.dcache.LoadLockedReq_hits::.cpu.data          168                       # number of LoadLockedReq hits
system.cpu.dcache.LoadLockedReq_hits::total          168                       # number of LoadLockedReq hits
system.cpu.dcache.LoadLockedReq_misses::.cpu.data            1                       # number of LoadLockedReq misses
system.cpu.dcache.LoadLockedReq_misses::total            1                       # number of LoadLockedReq misses
system.cpu.dcache.LoadLockedReq_miss_latency::.cpu.data        92500                       # number of LoadLockedReq miss cycles
system.cpu.dcache.LoadLockedReq_miss_latency::total        92500                       # number of LoadLockedReq miss cycles
system.cpu.dcache.LoadLockedReq_accesses::.cpu.data          169                       # number of LoadLockedReq accesses(hits+misses)
system.cpu.dcache.LoadLockedReq_accesses::total          169                       # number of LoadLockedReq accesses(hits+misses)
system.cpu.dcache.LoadLockedReq_miss_rate::.cpu.data     0.005917                       # miss rate for LoadLockedReq accesses
system.cpu.dcache.LoadLockedReq_miss_rate::total     0.005917                       # miss rate for LoadLockedReq accesses
system.cpu.dcache.LoadLockedReq_avg_miss_latency::.cpu.data        92500                       # average LoadLockedReq miss latency
system.cpu.dcache.LoadLockedReq_avg_miss_latency::total        92500                       # average LoadLockedReq miss latency
system.cpu.dcache.LoadLockedReq_mshr_misses::.cpu.data            1                       # number of LoadLockedReq MSHR misses
system.cpu.dcache.LoadLockedReq_mshr_misses::total            1                       # number of LoadLockedReq MSHR misses
system.cpu.dcache.LoadLockedReq_mshr_miss_latency::.cpu.data        91500                       # number of LoadLockedReq MSHR miss cycles
system.cpu.dcache.LoadLockedReq_mshr_miss_latency::total        91500                       # number of LoadLockedReq MSHR miss cycles
system.cpu.dcache.LoadLockedReq_mshr_miss_rate::.cpu.data     0.005917                       # mshr miss rate for LoadLockedReq accesses
system.cpu.dcache.LoadLockedReq_mshr_miss_rate::total     0.005917                       # mshr miss rate for LoadLockedReq accesses
system.cpu.dcache.LoadLockedReq_avg_mshr_miss_latency::.cpu.data        91500                       # average LoadLockedReq mshr miss latency
system.cpu.dcache.LoadLockedReq_avg_mshr_miss_latency::total        91500                       # average LoadLockedReq mshr miss latency
system.cpu.dcache.StoreCondReq_hits::.cpu.data          142                       # number of StoreCondReq hits
system.cpu.dcache.StoreCondReq_hits::total          142                       # number of StoreCondReq hits
system.cpu.dcache.StoreCondReq_accesses::.cpu.data          142                       # number of StoreCondReq accesses(hits+misses)
system.cpu.dcache.StoreCondReq_accesses::total          142                       # number of StoreCondReq accesses(hits+misses)
system.cpu.dcache.power_state.pwrStateResidencyTicks::UNDEFINED    778611500                       # Cumulative time (in ticks) in various power states
system.cpu.dcache.tags.tagsinuse           306.740296                       # Cycle average of tags in use
system.cpu.dcache.tags.total_refs              294478                       # Total number of references to valid blocks.
system.cpu.dcache.tags.sampled_refs             15349                       # Sample count of references to valid blocks.
system.cpu.dcache.tags.avg_refs             19.185484                       # Average number of references to valid blocks.
system.cpu.dcache.tags.warmup_cycle            249500                       # Cycle when the warmup percentage was hit.
system.cpu.dcache.tags.occ_blocks::.cpu.data   306.740296                       # Average occupied blocks per requestor
system.cpu.dcache.tags.occ_percent::.cpu.data     0.299551                       # Average percentage of cache occupancy
system.cpu.dcache.tags.occ_percent::total     0.299551                       # Average percentage of cache occupancy
system.cpu.dcache.tags.occ_task_id_blocks::1024          315                       # Occupied blocks per task id
system.cpu.dcache.tags.age_task_id_blocks_1024::0           64                       # Occupied blocks per task id
system.cpu.dcache.tags.age_task_id_blocks_1024::2          251                       # Occupied blocks per task id
system.cpu.dcache.tags.occ_task_id_percent::1024     0.307617                       # Percentage of cache occupancy per task id
system.cpu.dcache.tags.tag_accesses            831567                       # Number of tag accesses
system.cpu.dcache.tags.data_accesses           831567                       # Number of data accesses
system.cpu.dcache.tags.power_state.pwrStateResidencyTicks::UNDEFINED    778611500                       # Cumulative time (in ticks) in various power states
system.cpu.power_state.pwrStateResidencyTicks::ON    778611500                       # Cumulative time (in ticks) in various power states

---------- End Simulation Statistics   ----------
