
---------- Begin Simulation Statistics ----------
final_tick                                 3790720000                       # Number of ticks from beginning of simulation (restored from checkpoints and never reset)
host_inst_rate                                 109865                       # Simulator instruction rate (inst/s)
host_mem_usage                                 894388                       # Number of bytes of host memory used
host_op_rate                                   125002                       # Simulator op (including micro ops) rate (op/s)
host_seconds                                    91.02                       # Real time elapsed on the host
host_tick_rate                               41646773                       # Simulator tick rate (ticks/s)
sim_freq                                 1000000000000                       # Frequency of simulated ticks
sim_insts                                    10000007                       # Number of instructions simulated
sim_ops                                      11377760                       # Number of ops (including micro ops) simulated
sim_seconds                                  0.003791                       # Number of seconds simulated
sim_ticks                                  3790720000                       # Number of ticks simulated
system.cpu.branchPred.BTBCorrect                    0                       # Number of correct BTB predictions (this stat may not work properly.
system.cpu.branchPred.BTBHitPct             99.814536                       # BTB Hit Percentage
system.cpu.branchPred.BTBHits                 1039781                       # Number of BTB hits
system.cpu.branchPred.BTBLookups              1041713                       # Number of BTB lookups
system.cpu.branchPred.RASInCorrect                  2                       # Number of incorrect RAS predictions.
system.cpu.branchPred.condIncorrect             33680                       # Number of conditional branches incorrect
system.cpu.branchPred.condPredicted           1513043                       # Number of conditional branches predicted
system.cpu.branchPred.indirectHits                 91                       # Number of indirect target hits.
system.cpu.branchPred.indirectLookups             456                       # Number of indirect predictor lookups.
system.cpu.branchPred.indirectMisses              365                       # Number of indirect misses.
system.cpu.branchPred.lookups                 1885068                       # Number of BP lookups
system.cpu.branchPred.usedRAS                  157032                       # Number of times the RAS was used to get a target.
system.cpu.branchPredindirectMispredicted           94                       # Number of mispredicted indirect branches.
system.cpu.cc_regfile_reads                   2994168                       # number of cc regfile reads
system.cpu.cc_regfile_writes                  3000700                       # number of cc regfile writes
system.cpu.commit.amos                              0                       # Number of atomic instructions committed
system.cpu.commit.branchMispredicts             33235                       # The number of times a branch was mispredicted
system.cpu.commit.branches                    1493731                       # Number of branches committed
system.cpu.commit.bw_lim_events                923415                       # number cycles where commit BW limit reached
system.cpu.commit.commitNonSpecStalls             162                       # The number of times commit has been forced to stall to communicate backwards
system.cpu.commit.commitSquashedInsts         1949376                       # The number of squashed insts skipped by commit
system.cpu.commit.committedInsts             10030363                       # Number of instructions committed
system.cpu.commit.committedOps               11408116                       # Number of ops (including micro ops) committed
system.cpu.commit.committed_per_cycle::samples      7255450                       # Number of insts commited each cycle
system.cpu.commit.committed_per_cycle::mean     1.572351                       # Number of insts commited each cycle
system.cpu.commit.committed_per_cycle::stdev     2.766240                       # Number of insts commited each cycle
system.cpu.commit.committed_per_cycle::underflows            0      0.00%      0.00% # Number of insts commited each cycle
system.cpu.commit.committed_per_cycle::0      4636205     63.90%     63.90% # Number of insts commited each cycle
system.cpu.commit.committed_per_cycle::1       810743     11.17%     75.07% # Number of insts commited each cycle
system.cpu.commit.committed_per_cycle::2       245501      3.38%     78.46% # Number of insts commited each cycle
system.cpu.commit.committed_per_cycle::3       227105      3.13%     81.59% # Number of insts commited each cycle
system.cpu.commit.committed_per_cycle::4       192910      2.66%     84.25% # Number of insts commited each cycle
system.cpu.commit.committed_per_cycle::5        98888      1.36%     85.61% # Number of insts commited each cycle
system.cpu.commit.committed_per_cycle::6        73125      1.01%     86.62% # Number of insts commited each cycle
system.cpu.commit.committed_per_cycle::7        47558      0.66%     87.27% # Number of insts commited each cycle
system.cpu.commit.committed_per_cycle::8       923415     12.73%    100.00% # Number of insts commited each cycle
system.cpu.commit.committed_per_cycle::overflows            0      0.00%    100.00% # Number of insts commited each cycle
system.cpu.commit.committed_per_cycle::min_value            0                       # Number of insts commited each cycle
system.cpu.commit.committed_per_cycle::max_value            8                       # Number of insts commited each cycle
system.cpu.commit.committed_per_cycle::total      7255450                       # Number of insts commited each cycle
system.cpu.commit.fp_insts                          0                       # Number of committed floating point instructions.
system.cpu.commit.function_calls               109864                       # Number of function calls committed.
system.cpu.commit.int_insts                  10459677                       # Number of committed integer instructions.
system.cpu.commit.loads                       2765064                       # Number of loads committed
system.cpu.commit.membars                          71                       # Number of memory barriers committed
system.cpu.commit.op_class_0::No_OpClass            4      0.00%      0.00% # Class of committed instruction
system.cpu.commit.op_class_0::IntAlu          6770582     59.35%     59.35% # Class of committed instruction
system.cpu.commit.op_class_0::IntMult          207714      1.82%     61.17% # Class of committed instruction
system.cpu.commit.op_class_0::IntDiv                3      0.00%     61.17% # Class of committed instruction
system.cpu.commit.op_class_0::FloatAdd          20205      0.18%     61.35% # Class of committed instruction
system.cpu.commit.op_class_0::FloatCmp              1      0.00%     61.35% # Class of committed instruction
system.cpu.commit.op_class_0::FloatCvt          37098      0.33%     61.67% # Class of committed instruction
system.cpu.commit.op_class_0::FloatMult            10      0.00%     61.67% # Class of committed instruction
system.cpu.commit.op_class_0::FloatMultAcc           17      0.00%     61.67% # Class of committed instruction
system.cpu.commit.op_class_0::FloatDiv           3316      0.03%     61.70% # Class of committed instruction
system.cpu.commit.op_class_0::FloatMisc         20209      0.18%     61.88% # Class of committed instruction
system.cpu.commit.op_class_0::FloatSqrt             0      0.00%     61.88% # Class of committed instruction
system.cpu.commit.op_class_0::SimdAdd              18      0.00%     61.88% # Class of committed instruction
system.cpu.commit.op_class_0::SimdAddAcc            0      0.00%     61.88% # Class of committed instruction
system.cpu.commit.op_class_0::SimdAlu              18      0.00%     61.88% # Class of committed instruction
system.cpu.commit.op_class_0::SimdCmp              16      0.00%     61.88% # Class of committed instruction
system.cpu.commit.op_class_0::SimdCvt               4      0.00%     61.88% # Class of committed instruction
system.cpu.commit.op_class_0::SimdMisc             16      0.00%     61.88% # Class of committed instruction
system.cpu.commit.op_class_0::SimdMult              0      0.00%     61.88% # Class of committed instruction
system.cpu.commit.op_class_0::SimdMultAcc            0      0.00%     61.88% # Class of committed instruction
system.cpu.commit.op_class_0::SimdShift             0      0.00%     61.88% # Class of committed instruction
system.cpu.commit.op_class_0::SimdShiftAcc            0      0.00%     61.88% # Class of committed instruction
system.cpu.commit.op_class_0::SimdDiv               0      0.00%     61.88% # Class of committed instruction
system.cpu.commit.op_class_0::SimdSqrt              0      0.00%     61.88% # Class of committed instruction
system.cpu.commit.op_class_0::SimdFloatAdd            0      0.00%     61.88% # Class of committed instruction
system.cpu.commit.op_class_0::SimdFloatAlu            0      0.00%     61.88% # Class of committed instruction
system.cpu.commit.op_class_0::SimdFloatCmp            0      0.00%     61.88% # Class of committed instruction
system.cpu.commit.op_class_0::SimdFloatCvt            0      0.00%     61.88% # Class of committed instruction
system.cpu.commit.op_class_0::SimdFloatDiv            0      0.00%     61.88% # Class of committed instruction
system.cpu.commit.op_class_0::SimdFloatMisc            0      0.00%     61.88% # Class of committed instruction
system.cpu.commit.op_class_0::SimdFloatMult            0      0.00%     61.88% # Class of committed instruction
system.cpu.commit.op_class_0::SimdFloatMultAcc            0      0.00%     61.88% # Class of committed instruction
system.cpu.commit.op_class_0::SimdFloatSqrt            0      0.00%     61.88% # Class of committed instruction
system.cpu.commit.op_class_0::SimdReduceAdd            0      0.00%     61.88% # Class of committed instruction
system.cpu.commit.op_class_0::SimdReduceAlu            0      0.00%     61.88% # Class of committed instruction
system.cpu.commit.op_class_0::SimdReduceCmp            0      0.00%     61.88% # Class of committed instruction
system.cpu.commit.op_class_0::SimdFloatReduceAdd            0      0.00%     61.88% # Class of committed instruction
system.cpu.commit.op_class_0::SimdFloatReduceCmp            0      0.00%     61.88% # Class of committed instruction
system.cpu.commit.op_class_0::SimdAes               0      0.00%     61.88% # Class of committed instruction
system.cpu.commit.op_class_0::SimdAesMix            0      0.00%     61.88% # Class of committed instruction
system.cpu.commit.op_class_0::SimdSha1Hash            0      0.00%     61.88% # Class of committed instruction
system.cpu.commit.op_class_0::SimdSha1Hash2            0      0.00%     61.88% # Class of committed instruction
system.cpu.commit.op_class_0::SimdSha256Hash            0      0.00%     61.88% # Class of committed instruction
system.cpu.commit.op_class_0::SimdSha256Hash2            0      0.00%     61.88% # Class of committed instruction
system.cpu.commit.op_class_0::SimdShaSigma2            0      0.00%     61.88% # Class of committed instruction
system.cpu.commit.op_class_0::SimdShaSigma3            0      0.00%     61.88% # Class of committed instruction
system.cpu.commit.op_class_0::SimdPredAlu            0      0.00%     61.88% # Class of committed instruction
system.cpu.commit.op_class_0::MemRead         2765064     24.24%     86.12% # Class of committed instruction
system.cpu.commit.op_class_0::MemWrite        1583821     13.88%    100.00% # Class of committed instruction
system.cpu.commit.op_class_0::FloatMemRead            0      0.00%    100.00% # Class of committed instruction
system.cpu.commit.op_class_0::FloatMemWrite            0      0.00%    100.00% # Class of committed instruction
system.cpu.commit.op_class_0::IprAccess             0      0.00%    100.00% # Class of committed instruction
system.cpu.commit.op_class_0::InstPrefetch            0      0.00%    100.00% # Class of committed instruction
system.cpu.commit.op_class_0::total          11408116                       # Class of committed instruction
system.cpu.commit.refs                        4348885                       # Number of memory references committed
system.cpu.commit.swp_count                         0                       # Number of s/w prefetches committed
system.cpu.commit.vec_insts                     81296                       # Number of committed Vector instructions.
system.cpu.committedInsts                    10000007                       # Number of Instructions Simulated
system.cpu.committedOps                      11377760                       # Number of Ops (including micro ops) Simulated
system.cpu.cpi                               0.758144                       # CPI: Cycles Per Instruction
system.cpu.cpi_total                         0.758144                       # CPI: Total CPI of All Threads
system.cpu.decode.BlockedCycles               4394267                       # Number of cycles decode is blocked
system.cpu.decode.BranchMispred                   459                       # Number of times decode detected a branch misprediction
system.cpu.decode.BranchResolved              1006686                       # Number of times decode resolved a branch
system.cpu.decode.DecodedInsts               13763372                       # Number of instructions handled by decode
system.cpu.decode.IdleCycles                   848255                       # Number of cycles decode is idle
system.cpu.decode.RunCycles                   2000903                       # Number of cycles decode is running
system.cpu.decode.SquashCycles                  36113                       # Number of cycles decode is squashing
system.cpu.decode.SquashedInsts                  1586                       # Number of squashed instructions handled by decode
system.cpu.decode.UnblockCycles                236584                       # Number of cycles decode is unblocking
system.cpu.dtb.accesses                             0                       # DTB accesses
system.cpu.dtb.align_faults                         0                       # Number of TLB faults due to alignment restrictions
system.cpu.dtb.domain_faults                        0                       # Number of TLB faults due to domain restrictions
system.cpu.dtb.flush_entries                        0                       # Number of entries that have been flushed from TLB
system.cpu.dtb.flush_tlb                            2                       # Number of times complete TLB was flushed
system.cpu.dtb.flush_tlb_asid                       0                       # Number of times TLB was flushed by ASID
system.cpu.dtb.flush_tlb_mva                        0                       # Number of times TLB was flushed by MVA
system.cpu.dtb.flush_tlb_mva_asid                   0                       # Number of times TLB was flushed by MVA & ASID
system.cpu.dtb.hits                                 0                       # DTB hits
system.cpu.dtb.inst_accesses                        0                       # ITB inst accesses
system.cpu.dtb.inst_hits                            0                       # ITB inst hits
system.cpu.dtb.inst_misses                          0                       # ITB inst misses
system.cpu.dtb.misses                               0                       # DTB misses
system.cpu.dtb.perms_faults                         0                       # Number of TLB faults due to permissions restrictions
system.cpu.dtb.prefetch_faults                      0                       # Number of TLB faults due to prefetch
system.cpu.dtb.read_accesses                        0                       # DTB read accesses
system.cpu.dtb.read_hits                            0                       # DTB read hits
system.cpu.dtb.read_misses                          0                       # DTB read misses
system.cpu.dtb.stage2_mmu.stage2_tlb.accesses            0                       # DTB accesses
system.cpu.dtb.stage2_mmu.stage2_tlb.align_faults            0                       # Number of TLB faults due to alignment restrictions
system.cpu.dtb.stage2_mmu.stage2_tlb.domain_faults            0                       # Number of TLB faults due to domain restrictions
system.cpu.dtb.stage2_mmu.stage2_tlb.flush_entries            0                       # Number of entries that have been flushed from TLB
system.cpu.dtb.stage2_mmu.stage2_tlb.flush_tlb            0                       # Number of times complete TLB was flushed
system.cpu.dtb.stage2_mmu.stage2_tlb.flush_tlb_asid            0                       # Number of times TLB was flushed by ASID
system.cpu.dtb.stage2_mmu.stage2_tlb.flush_tlb_mva            0                       # Number of times TLB was flushed by MVA
system.cpu.dtb.stage2_mmu.stage2_tlb.flush_tlb_mva_asid            0                       # Number of times TLB was flushed by MVA & ASID
system.cpu.dtb.stage2_mmu.stage2_tlb.hits            0                       # DTB hits
system.cpu.dtb.stage2_mmu.stage2_tlb.inst_accesses            0                       # ITB inst accesses
system.cpu.dtb.stage2_mmu.stage2_tlb.inst_hits            0                       # ITB inst hits
system.cpu.dtb.stage2_mmu.stage2_tlb.inst_misses            0                       # ITB inst misses
system.cpu.dtb.stage2_mmu.stage2_tlb.misses            0                       # DTB misses
system.cpu.dtb.stage2_mmu.stage2_tlb.perms_faults            0                       # Number of TLB faults due to permissions restrictions
system.cpu.dtb.stage2_mmu.stage2_tlb.prefetch_faults            0                       # Number of TLB faults due to prefetch
system.cpu.dtb.stage2_mmu.stage2_tlb.read_accesses            0                       # DTB read accesses
system.cpu.dtb.stage2_mmu.stage2_tlb.read_hits            0                       # DTB read hits
system.cpu.dtb.stage2_mmu.stage2_tlb.read_misses            0                       # DTB read misses
system.cpu.dtb.stage2_mmu.stage2_tlb.walker.walkRequestOrigin_Requested::Data            0                       # Table walker requests started/completed, data/inst
system.cpu.dtb.stage2_mmu.stage2_tlb.walker.walkRequestOrigin_Requested::Inst            0                       # Table walker requests started/completed, data/inst
system.cpu.dtb.stage2_mmu.stage2_tlb.walker.walkRequestOrigin_Requested::total            0                       # Table walker requests started/completed, data/inst
system.cpu.dtb.stage2_mmu.stage2_tlb.walker.walkRequestOrigin_Completed::Data            0                       # Table walker requests started/completed, data/inst
system.cpu.dtb.stage2_mmu.stage2_tlb.walker.walkRequestOrigin_Completed::Inst            0                       # Table walker requests started/completed, data/inst
system.cpu.dtb.stage2_mmu.stage2_tlb.walker.walkRequestOrigin_Completed::total            0                       # Table walker requests started/completed, data/inst
system.cpu.dtb.stage2_mmu.stage2_tlb.walker.walkRequestOrigin::total            0                       # Table walker requests started/completed, data/inst
system.cpu.dtb.stage2_mmu.stage2_tlb.walker.walks            0                       # Table walker walks requested
system.cpu.dtb.stage2_mmu.stage2_tlb.write_accesses            0                       # DTB write accesses
system.cpu.dtb.stage2_mmu.stage2_tlb.write_hits            0                       # DTB write hits
system.cpu.dtb.stage2_mmu.stage2_tlb.write_misses            0                       # DTB write misses
system.cpu.dtb.walker.walkRequestOrigin_Requested::Data            0                       # Table walker requests started/completed, data/inst
system.cpu.dtb.walker.walkRequestOrigin_Requested::Inst            0                       # Table walker requests started/completed, data/inst
system.cpu.dtb.walker.walkRequestOrigin_Requested::total            0                       # Table walker requests started/completed, data/inst
system.cpu.dtb.walker.walkRequestOrigin_Completed::Data            0                       # Table walker requests started/completed, data/inst
system.cpu.dtb.walker.walkRequestOrigin_Completed::Inst            0                       # Table walker requests started/completed, data/inst
system.cpu.dtb.walker.walkRequestOrigin_Completed::total            0                       # Table walker requests started/completed, data/inst
system.cpu.dtb.walker.walkRequestOrigin::total            0                       # Table walker requests started/completed, data/inst
system.cpu.dtb.walker.walks                         0                       # Table walker walks requested
system.cpu.dtb.write_accesses                       0                       # DTB write accesses
system.cpu.dtb.write_hits                           0                       # DTB write hits
system.cpu.dtb.write_misses                         0                       # DTB write misses
system.cpu.fetch.Branches                     1885068                       # Number of branches that fetch encountered
system.cpu.fetch.CacheLines                   1192958                       # Number of cache lines fetched
system.cpu.fetch.Cycles                       6247610                       # Number of cycles fetch has run and was not squashing or blocked
system.cpu.fetch.IcacheSquashes                 10874                       # Number of outstanding Icache misses that were squashed
system.cpu.fetch.Insts                       12402506                       # Number of instructions fetch has processed
system.cpu.fetch.SquashCycles                   73116                       # Number of cycles fetch has spent squashing
system.cpu.fetch.branchRate                  0.248642                       # Number of branch fetches per cycle
system.cpu.fetch.icacheStallCycles            1231954                       # Number of cycles fetch is stalled on an Icache miss
system.cpu.fetch.predictedBranches            1196904                       # Number of branches that fetch has predicted taken
system.cpu.fetch.rate                        1.635904                       # Number of inst fetches per cycle
system.cpu.fetch.rateDist::samples            7516122                       # Number of instructions fetched each cycle (Total)
system.cpu.fetch.rateDist::mean              1.882078                       # Number of instructions fetched each cycle (Total)
system.cpu.fetch.rateDist::stdev             2.985324                       # Number of instructions fetched each cycle (Total)
system.cpu.fetch.rateDist::underflows               0      0.00%      0.00% # Number of instructions fetched each cycle (Total)
system.cpu.fetch.rateDist::0                  4791193     63.75%     63.75% # Number of instructions fetched each cycle (Total)
system.cpu.fetch.rateDist::1                   244369      3.25%     67.00% # Number of instructions fetched each cycle (Total)
system.cpu.fetch.rateDist::2                   483167      6.43%     73.43% # Number of instructions fetched each cycle (Total)
system.cpu.fetch.rateDist::3                   273296      3.64%     77.06% # Number of instructions fetched each cycle (Total)
system.cpu.fetch.rateDist::4                   211164      2.81%     79.87% # Number of instructions fetched each cycle (Total)
system.cpu.fetch.rateDist::5                   177781      2.37%     82.24% # Number of instructions fetched each cycle (Total)
system.cpu.fetch.rateDist::6                    95304      1.27%     83.50% # Number of instructions fetched each cycle (Total)
system.cpu.fetch.rateDist::7                   108831      1.45%     84.95% # Number of instructions fetched each cycle (Total)
system.cpu.fetch.rateDist::8                  1131017     15.05%    100.00% # Number of instructions fetched each cycle (Total)
system.cpu.fetch.rateDist::overflows                0      0.00%    100.00% # Number of instructions fetched each cycle (Total)
system.cpu.fetch.rateDist::min_value                0                       # Number of instructions fetched each cycle (Total)
system.cpu.fetch.rateDist::max_value                8                       # Number of instructions fetched each cycle (Total)
system.cpu.fetch.rateDist::total              7516122                       # Number of instructions fetched each cycle (Total)
system.cpu.icache.prefetcher.num_hwpf_issued         2195                       # number of hwpf issued
system.cpu.icache.prefetcher.pfBufferHit            2                       # number of redundant prefetches already in prefetch queue
system.cpu.icache.prefetcher.pfIdentified         2197                       # number of prefetch candidates identified
system.cpu.icache.prefetcher.pfInCache              0                       # number of redundant prefetches already in cache/mshr dropped
system.cpu.icache.prefetcher.pfRemovedFull            0                       # number of prefetches dropped due to prefetch queue size
system.cpu.icache.prefetcher.pfSpanPage          2199                       # number of prefetches that crossed the page
system.cpu.idleCycles                           65319                       # Total number of cycles that the CPU has spent unscheduled due to idling
system.cpu.iew.branchMispredicts                35474                       # Number of branch mispredicts detected at execute
system.cpu.iew.exec_branches                  1636316                       # Number of branches executed
system.cpu.iew.exec_nop                         38489                       # number of nop insts executed
system.cpu.iew.exec_rate                     1.673060                       # Inst execution rate
system.cpu.iew.exec_refs                      4901131                       # number of memory reference insts executed
system.cpu.iew.exec_stores                    1738486                       # Number of stores executed
system.cpu.iew.exec_swp                             0                       # number of swp insts executed
system.cpu.iew.iewBlockCycles                  335591                       # Number of cycles IEW is blocking
system.cpu.iew.iewDispLoadInsts               3258236                       # Number of dispatched load instructions
system.cpu.iew.iewDispNonSpecInsts                206                       # Number of dispatched non-speculative instructions
system.cpu.iew.iewDispSquashedInsts              1095                       # Number of squashed instructions skipped by dispatch
system.cpu.iew.iewDispStoreInsts              1837306                       # Number of dispatched store instructions
system.cpu.iew.iewDispatchedInsts            13400113                       # Number of instructions dispatched to IQ
system.cpu.iew.iewExecLoadInsts               3162645                       # Number of load instructions executed
system.cpu.iew.iewExecSquashedInsts             57510                       # Number of squashed instructions skipped in execute
system.cpu.iew.iewExecutedInsts              12684207                       # Number of executed instructions
system.cpu.iew.iewIQFullEvents                   2266                       # Number of times the IQ has become full, causing a stall
system.cpu.iew.iewIdleCycles                        0                       # Number of cycles IEW is idle
system.cpu.iew.iewLSQFullEvents                287032                       # Number of times the LSQ has become full, causing a stall
system.cpu.iew.iewSquashCycles                  36113                       # Number of cycles IEW is squashing
system.cpu.iew.iewUnblockCycles                289591                       # Number of cycles IEW is unblocking
system.cpu.iew.lsq.thread0.blockedLoads             0                       # Number of blocked loads due to partial load-store forwarding
system.cpu.iew.lsq.thread0.cacheBlocked          2746                       # Number of times an access to memory failed due to the cache being blocked
system.cpu.iew.lsq.thread0.forwLoads            37111                       # Number of loads that had data forwarded from stores
system.cpu.iew.lsq.thread0.ignoredResponses          113                       # Number of memory responses ignored because the instruction is squashed
system.cpu.iew.lsq.thread0.invAddrLoads             0                       # Number of loads ignored due to an invalid address
system.cpu.iew.lsq.thread0.invAddrSwpfs             0                       # Number of software prefetches ignored due to an invalid address
system.cpu.iew.lsq.thread0.memOrderViolation          178                       # Number of memory ordering violations
system.cpu.iew.lsq.thread0.rescheduledLoads       166287                       # Number of loads that were rescheduled
system.cpu.iew.lsq.thread0.squashedLoads       493164                       # Number of loads squashed
system.cpu.iew.lsq.thread0.squashedStores       253482                       # Number of stores squashed
system.cpu.iew.memOrderViolationEvents            178                       # Number of memory order violations
system.cpu.iew.predictedNotTakenIncorrect        16801                       # Number of branches that were predicted not taken incorrectly
system.cpu.iew.predictedTakenIncorrect          18673                       # Number of branches that were predicted taken incorrectly
system.cpu.iew.wb_consumers                  13050493                       # num instructions consuming a value
system.cpu.iew.wb_count                      12457466                       # cumulative count of insts written-back
system.cpu.iew.wb_fanout                     0.600242                       # average fanout of values written-back
system.cpu.iew.wb_producers                   7833451                       # num instructions producing a value
system.cpu.iew.wb_rate                       1.643153                       # insts written-back per cycle
system.cpu.iew.wb_sent                       12498056                       # cumulative count of insts sent to commit
system.cpu.int_regfile_reads                 16529541                       # number of integer regfile reads
system.cpu.int_regfile_writes                 9625351                       # number of integer regfile writes
system.cpu.ipc                               1.319011                       # IPC: Instructions Per Cycle
system.cpu.ipc_total                         1.319011                       # IPC: Total IPC of All Threads
system.cpu.iq.FU_type_0::No_OpClass                 6      0.00%      0.00% # Type of FU issued
system.cpu.iq.FU_type_0::IntAlu               7455109     58.51%     58.51% # Type of FU issued
system.cpu.iq.FU_type_0::IntMult               244237      1.92%     60.43% # Type of FU issued
system.cpu.iq.FU_type_0::IntDiv                     3      0.00%     60.43% # Type of FU issued
system.cpu.iq.FU_type_0::FloatAdd               26589      0.21%     60.64% # Type of FU issued
system.cpu.iq.FU_type_0::FloatCmp                   1      0.00%     60.64% # Type of FU issued
system.cpu.iq.FU_type_0::FloatCvt               44814      0.35%     60.99% # Type of FU issued
system.cpu.iq.FU_type_0::FloatMult                 10      0.00%     60.99% # Type of FU issued
system.cpu.iq.FU_type_0::FloatMultAcc              17      0.00%     60.99% # Type of FU issued
system.cpu.iq.FU_type_0::FloatDiv                4703      0.04%     61.02% # Type of FU issued
system.cpu.iq.FU_type_0::FloatMisc              32802      0.26%     61.28% # Type of FU issued
system.cpu.iq.FU_type_0::FloatSqrt                  0      0.00%     61.28% # Type of FU issued
system.cpu.iq.FU_type_0::SimdAdd                   24      0.00%     61.28% # Type of FU issued
system.cpu.iq.FU_type_0::SimdAddAcc                 0      0.00%     61.28% # Type of FU issued
system.cpu.iq.FU_type_0::SimdAlu                   22      0.00%     61.28% # Type of FU issued
system.cpu.iq.FU_type_0::SimdCmp                   23      0.00%     61.28% # Type of FU issued
system.cpu.iq.FU_type_0::SimdCvt                    4      0.00%     61.28% # Type of FU issued
system.cpu.iq.FU_type_0::SimdMisc                  18      0.00%     61.28% # Type of FU issued
system.cpu.iq.FU_type_0::SimdMult                   0      0.00%     61.28% # Type of FU issued
system.cpu.iq.FU_type_0::SimdMultAcc                0      0.00%     61.28% # Type of FU issued
system.cpu.iq.FU_type_0::SimdShift                  0      0.00%     61.28% # Type of FU issued
system.cpu.iq.FU_type_0::SimdShiftAcc               0      0.00%     61.28% # Type of FU issued
system.cpu.iq.FU_type_0::SimdDiv                    0      0.00%     61.28% # Type of FU issued
system.cpu.iq.FU_type_0::SimdSqrt                   0      0.00%     61.28% # Type of FU issued
system.cpu.iq.FU_type_0::SimdFloatAdd               0      0.00%     61.28% # Type of FU issued
system.cpu.iq.FU_type_0::SimdFloatAlu               0      0.00%     61.28% # Type of FU issued
system.cpu.iq.FU_type_0::SimdFloatCmp               0      0.00%     61.28% # Type of FU issued
system.cpu.iq.FU_type_0::SimdFloatCvt               0      0.00%     61.28% # Type of FU issued
system.cpu.iq.FU_type_0::SimdFloatDiv               0      0.00%     61.28% # Type of FU issued
system.cpu.iq.FU_type_0::SimdFloatMisc              0      0.00%     61.28% # Type of FU issued
system.cpu.iq.FU_type_0::SimdFloatMult              0      0.00%     61.28% # Type of FU issued
system.cpu.iq.FU_type_0::SimdFloatMultAcc            0      0.00%     61.28% # Type of FU issued
system.cpu.iq.FU_type_0::SimdFloatSqrt              0      0.00%     61.28% # Type of FU issued
system.cpu.iq.FU_type_0::SimdReduceAdd              0      0.00%     61.28% # Type of FU issued
system.cpu.iq.FU_type_0::SimdReduceAlu              0      0.00%     61.28% # Type of FU issued
system.cpu.iq.FU_type_0::SimdReduceCmp              0      0.00%     61.28% # Type of FU issued
system.cpu.iq.FU_type_0::SimdFloatReduceAdd            0      0.00%     61.28% # Type of FU issued
system.cpu.iq.FU_type_0::SimdFloatReduceCmp            0      0.00%     61.28% # Type of FU issued
system.cpu.iq.FU_type_0::SimdAes                    0      0.00%     61.28% # Type of FU issued
system.cpu.iq.FU_type_0::SimdAesMix                 0      0.00%     61.28% # Type of FU issued
system.cpu.iq.FU_type_0::SimdSha1Hash               0      0.00%     61.28% # Type of FU issued
system.cpu.iq.FU_type_0::SimdSha1Hash2              0      0.00%     61.28% # Type of FU issued
system.cpu.iq.FU_type_0::SimdSha256Hash             0      0.00%     61.28% # Type of FU issued
system.cpu.iq.FU_type_0::SimdSha256Hash2            0      0.00%     61.28% # Type of FU issued
system.cpu.iq.FU_type_0::SimdShaSigma2              0      0.00%     61.28% # Type of FU issued
system.cpu.iq.FU_type_0::SimdShaSigma3              0      0.00%     61.28% # Type of FU issued
system.cpu.iq.FU_type_0::SimdPredAlu                0      0.00%     61.28% # Type of FU issued
system.cpu.iq.FU_type_0::MemRead              3185991     25.00%     86.29% # Type of FU issued
system.cpu.iq.FU_type_0::MemWrite             1747348     13.71%    100.00% # Type of FU issued
system.cpu.iq.FU_type_0::FloatMemRead               0      0.00%    100.00% # Type of FU issued
system.cpu.iq.FU_type_0::FloatMemWrite              0      0.00%    100.00% # Type of FU issued
system.cpu.iq.FU_type_0::IprAccess                  0      0.00%    100.00% # Type of FU issued
system.cpu.iq.FU_type_0::InstPrefetch               0      0.00%    100.00% # Type of FU issued
system.cpu.iq.FU_type_0::total               12741721                       # Type of FU issued
system.cpu.iq.fp_alu_accesses                       0                       # Number of floating point alu accesses
system.cpu.iq.fp_inst_queue_reads                   0                       # Number of floating instruction queue reads
system.cpu.iq.fp_inst_queue_wakeup_accesses            0                       # Number of floating instruction queue wakeup accesses
system.cpu.iq.fp_inst_queue_writes                  0                       # Number of floating instruction queue writes
system.cpu.iq.fu_busy_cnt                      217401                       # FU busy when requested
system.cpu.iq.fu_busy_rate                   0.017062                       # FU busy rate (busy events/executed inst)
system.cpu.iq.fu_full::No_OpClass                   0      0.00%      0.00% # attempts to use FU when none available
system.cpu.iq.fu_full::IntAlu                   52956     24.36%     24.36% # attempts to use FU when none available
system.cpu.iq.fu_full::IntMult                    108      0.05%     24.41% # attempts to use FU when none available
system.cpu.iq.fu_full::IntDiv                       0      0.00%     24.41% # attempts to use FU when none available
system.cpu.iq.fu_full::FloatAdd                     0      0.00%     24.41% # attempts to use FU when none available
system.cpu.iq.fu_full::FloatCmp                     0      0.00%     24.41% # attempts to use FU when none available
system.cpu.iq.fu_full::FloatCvt                     0      0.00%     24.41% # attempts to use FU when none available
system.cpu.iq.fu_full::FloatMult                   16      0.01%     24.42% # attempts to use FU when none available
system.cpu.iq.fu_full::FloatMultAcc                 0      0.00%     24.42% # attempts to use FU when none available
system.cpu.iq.fu_full::FloatDiv                    22      0.01%     24.43% # attempts to use FU when none available
system.cpu.iq.fu_full::FloatMisc                   92      0.04%     24.47% # attempts to use FU when none available
system.cpu.iq.fu_full::FloatSqrt                    0      0.00%     24.47% # attempts to use FU when none available
system.cpu.iq.fu_full::SimdAdd                      0      0.00%     24.47% # attempts to use FU when none available
system.cpu.iq.fu_full::SimdAddAcc                   0      0.00%     24.47% # attempts to use FU when none available
system.cpu.iq.fu_full::SimdAlu                      1      0.00%     24.47% # attempts to use FU when none available
system.cpu.iq.fu_full::SimdCmp                      2      0.00%     24.47% # attempts to use FU when none available
system.cpu.iq.fu_full::SimdCvt                      0      0.00%     24.47% # attempts to use FU when none available
system.cpu.iq.fu_full::SimdMisc                     0      0.00%     24.47% # attempts to use FU when none available
system.cpu.iq.fu_full::SimdMult                     0      0.00%     24.47% # attempts to use FU when none available
system.cpu.iq.fu_full::SimdMultAcc                  0      0.00%     24.47% # attempts to use FU when none available
system.cpu.iq.fu_full::SimdShift                    0      0.00%     24.47% # attempts to use FU when none available
system.cpu.iq.fu_full::SimdShiftAcc                 0      0.00%     24.47% # attempts to use FU when none available
system.cpu.iq.fu_full::SimdDiv                      0      0.00%     24.47% # attempts to use FU when none available
system.cpu.iq.fu_full::SimdSqrt                     0      0.00%     24.47% # attempts to use FU when none available
system.cpu.iq.fu_full::SimdFloatAdd                 0      0.00%     24.47% # attempts to use FU when none available
system.cpu.iq.fu_full::SimdFloatAlu                 0      0.00%     24.47% # attempts to use FU when none available
system.cpu.iq.fu_full::SimdFloatCmp                 0      0.00%     24.47% # attempts to use FU when none available
system.cpu.iq.fu_full::SimdFloatCvt                 0      0.00%     24.47% # attempts to use FU when none available
system.cpu.iq.fu_full::SimdFloatDiv                 0      0.00%     24.47% # attempts to use FU when none available
system.cpu.iq.fu_full::SimdFloatMisc                0      0.00%     24.47% # attempts to use FU when none available
system.cpu.iq.fu_full::SimdFloatMult                0      0.00%     24.47% # attempts to use FU when none available
system.cpu.iq.fu_full::SimdFloatMultAcc             0      0.00%     24.47% # attempts to use FU when none available
system.cpu.iq.fu_full::SimdFloatSqrt                0      0.00%     24.47% # attempts to use FU when none available
system.cpu.iq.fu_full::SimdReduceAdd                0      0.00%     24.47% # attempts to use FU when none available
system.cpu.iq.fu_full::SimdReduceAlu                0      0.00%     24.47% # attempts to use FU when none available
system.cpu.iq.fu_full::SimdReduceCmp                0      0.00%     24.47% # attempts to use FU when none available
system.cpu.iq.fu_full::SimdFloatReduceAdd            0      0.00%     24.47% # attempts to use FU when none available
system.cpu.iq.fu_full::SimdFloatReduceCmp            0      0.00%     24.47% # attempts to use FU when none available
system.cpu.iq.fu_full::SimdAes                      0      0.00%     24.47% # attempts to use FU when none available
system.cpu.iq.fu_full::SimdAesMix                   0      0.00%     24.47% # attempts to use FU when none available
system.cpu.iq.fu_full::SimdSha1Hash                 0      0.00%     24.47% # attempts to use FU when none available
system.cpu.iq.fu_full::SimdSha1Hash2                0      0.00%     24.47% # attempts to use FU when none available
system.cpu.iq.fu_full::SimdSha256Hash               0      0.00%     24.47% # attempts to use FU when none available
system.cpu.iq.fu_full::SimdSha256Hash2              0      0.00%     24.47% # attempts to use FU when none available
system.cpu.iq.fu_full::SimdShaSigma2                0      0.00%     24.47% # attempts to use FU when none available
system.cpu.iq.fu_full::SimdShaSigma3                0      0.00%     24.47% # attempts to use FU when none available
system.cpu.iq.fu_full::SimdPredAlu                  0      0.00%     24.47% # attempts to use FU when none available
system.cpu.iq.fu_full::MemRead                 116522     53.60%     78.07% # attempts to use FU when none available
system.cpu.iq.fu_full::MemWrite                 47682     21.93%    100.00% # attempts to use FU when none available
system.cpu.iq.fu_full::FloatMemRead                 0      0.00%    100.00% # attempts to use FU when none available
system.cpu.iq.fu_full::FloatMemWrite                0      0.00%    100.00% # attempts to use FU when none available
system.cpu.iq.fu_full::IprAccess                    0      0.00%    100.00% # attempts to use FU when none available
system.cpu.iq.fu_full::InstPrefetch                 0      0.00%    100.00% # attempts to use FU when none available
system.cpu.iq.int_alu_accesses               12849300                       # Number of integer alu accesses
system.cpu.iq.int_inst_queue_reads           33014495                       # Number of integer instruction queue reads
system.cpu.iq.int_inst_queue_wakeup_accesses     12350033                       # Number of integer instruction queue wakeup accesses
system.cpu.iq.int_inst_queue_writes          15166871                       # Number of integer instruction queue writes
system.cpu.iq.iqInstsAdded                   13361418                       # Number of instructions added to the IQ (excludes non-spec)
system.cpu.iq.iqInstsIssued                  12741721                       # Number of instructions issued
system.cpu.iq.iqNonSpecInstsAdded                 206                       # Number of non-speculative instructions added to the IQ
system.cpu.iq.iqSquashedInstsExamined         1983824                       # Number of squashed instructions iterated over during squash; mainly for profiling
system.cpu.iq.iqSquashedInstsIssued             17103                       # Number of squashed instructions issued
system.cpu.iq.iqSquashedNonSpecRemoved             44                       # Number of squashed non-spec instructions that were removed
system.cpu.iq.iqSquashedOperandsExamined      1662812                       # Number of squashed operands that are examined and possibly removed from graph
system.cpu.iq.issued_per_cycle::samples       7516122                       # Number of insts issued each cycle
system.cpu.iq.issued_per_cycle::mean         1.695252                       # Number of insts issued each cycle
system.cpu.iq.issued_per_cycle::stdev        2.382817                       # Number of insts issued each cycle
system.cpu.iq.issued_per_cycle::underflows            0      0.00%      0.00% # Number of insts issued each cycle
system.cpu.iq.issued_per_cycle::0             4172541     55.51%     55.51% # Number of insts issued each cycle
system.cpu.iq.issued_per_cycle::1              554399      7.38%     62.89% # Number of insts issued each cycle
system.cpu.iq.issued_per_cycle::2              595634      7.92%     70.82% # Number of insts issued each cycle
system.cpu.iq.issued_per_cycle::3              555275      7.39%     78.20% # Number of insts issued each cycle
system.cpu.iq.issued_per_cycle::4              427359      5.69%     83.89% # Number of insts issued each cycle
system.cpu.iq.issued_per_cycle::5              397260      5.29%     89.17% # Number of insts issued each cycle
system.cpu.iq.issued_per_cycle::6              309572      4.12%     93.29% # Number of insts issued each cycle
system.cpu.iq.issued_per_cycle::7              255595      3.40%     96.69% # Number of insts issued each cycle
system.cpu.iq.issued_per_cycle::8              248487      3.31%    100.00% # Number of insts issued each cycle
system.cpu.iq.issued_per_cycle::overflows            0      0.00%    100.00% # Number of insts issued each cycle
system.cpu.iq.issued_per_cycle::min_value            0                       # Number of insts issued each cycle
system.cpu.iq.issued_per_cycle::max_value            8                       # Number of insts issued each cycle
system.cpu.iq.issued_per_cycle::total         7516122                       # Number of insts issued each cycle
system.cpu.iq.rate                           1.680646                       # Inst issue rate
system.cpu.iq.vec_alu_accesses                 109816                       # Number of vector alu accesses
system.cpu.iq.vec_inst_queue_reads             219569                       # Number of vector instruction queue reads
system.cpu.iq.vec_inst_queue_wakeup_accesses       107433                       # Number of vector instruction queue wakeup accesses
system.cpu.iq.vec_inst_queue_writes            178750                       # Number of vector instruction queue writes
system.cpu.itb.accesses                             0                       # DTB accesses
system.cpu.itb.align_faults                         0                       # Number of TLB faults due to alignment restrictions
system.cpu.itb.domain_faults                        0                       # Number of TLB faults due to domain restrictions
system.cpu.itb.flush_entries                        0                       # Number of entries that have been flushed from TLB
system.cpu.itb.flush_tlb                            2                       # Number of times complete TLB was flushed
system.cpu.itb.flush_tlb_asid                       0                       # Number of times TLB was flushed by ASID
system.cpu.itb.flush_tlb_mva                        0                       # Number of times TLB was flushed by MVA
system.cpu.itb.flush_tlb_mva_asid                   0                       # Number of times TLB was flushed by MVA & ASID
system.cpu.itb.hits                                 0                       # DTB hits
system.cpu.itb.inst_accesses                        0                       # ITB inst accesses
system.cpu.itb.inst_hits                            0                       # ITB inst hits
system.cpu.itb.inst_misses                          0                       # ITB inst misses
system.cpu.itb.misses                               0                       # DTB misses
system.cpu.itb.perms_faults                         0                       # Number of TLB faults due to permissions restrictions
system.cpu.itb.prefetch_faults                      0                       # Number of TLB faults due to prefetch
system.cpu.itb.read_accesses                        0                       # DTB read accesses
system.cpu.itb.read_hits                            0                       # DTB read hits
system.cpu.itb.read_misses                          0                       # DTB read misses
system.cpu.itb.stage2_mmu.stage2_tlb.accesses            0                       # DTB accesses
system.cpu.itb.stage2_mmu.stage2_tlb.align_faults            0                       # Number of TLB faults due to alignment restrictions
system.cpu.itb.stage2_mmu.stage2_tlb.domain_faults            0                       # Number of TLB faults due to domain restrictions
system.cpu.itb.stage2_mmu.stage2_tlb.flush_entries            0                       # Number of entries that have been flushed from TLB
system.cpu.itb.stage2_mmu.stage2_tlb.flush_tlb            0                       # Number of times complete TLB was flushed
system.cpu.itb.stage2_mmu.stage2_tlb.flush_tlb_asid            0                       # Number of times TLB was flushed by ASID
system.cpu.itb.stage2_mmu.stage2_tlb.flush_tlb_mva            0                       # Number of times TLB was flushed by MVA
system.cpu.itb.stage2_mmu.stage2_tlb.flush_tlb_mva_asid            0                       # Number of times TLB was flushed by MVA & ASID
system.cpu.itb.stage2_mmu.stage2_tlb.hits            0                       # DTB hits
system.cpu.itb.stage2_mmu.stage2_tlb.inst_accesses            0                       # ITB inst accesses
system.cpu.itb.stage2_mmu.stage2_tlb.inst_hits            0                       # ITB inst hits
system.cpu.itb.stage2_mmu.stage2_tlb.inst_misses            0                       # ITB inst misses
system.cpu.itb.stage2_mmu.stage2_tlb.misses            0                       # DTB misses
system.cpu.itb.stage2_mmu.stage2_tlb.perms_faults            0                       # Number of TLB faults due to permissions restrictions
system.cpu.itb.stage2_mmu.stage2_tlb.prefetch_faults            0                       # Number of TLB faults due to prefetch
system.cpu.itb.stage2_mmu.stage2_tlb.read_accesses            0                       # DTB read accesses
system.cpu.itb.stage2_mmu.stage2_tlb.read_hits            0                       # DTB read hits
system.cpu.itb.stage2_mmu.stage2_tlb.read_misses            0                       # DTB read misses
system.cpu.itb.stage2_mmu.stage2_tlb.walker.walkRequestOrigin_Requested::Data            0                       # Table walker requests started/completed, data/inst
system.cpu.itb.stage2_mmu.stage2_tlb.walker.walkRequestOrigin_Requested::Inst            0                       # Table walker requests started/completed, data/inst
system.cpu.itb.stage2_mmu.stage2_tlb.walker.walkRequestOrigin_Requested::total            0                       # Table walker requests started/completed, data/inst
system.cpu.itb.stage2_mmu.stage2_tlb.walker.walkRequestOrigin_Completed::Data            0                       # Table walker requests started/completed, data/inst
system.cpu.itb.stage2_mmu.stage2_tlb.walker.walkRequestOrigin_Completed::Inst            0                       # Table walker requests started/completed, data/inst
system.cpu.itb.stage2_mmu.stage2_tlb.walker.walkRequestOrigin_Completed::total            0                       # Table walker requests started/completed, data/inst
system.cpu.itb.stage2_mmu.stage2_tlb.walker.walkRequestOrigin::total            0                       # Table walker requests started/completed, data/inst
system.cpu.itb.stage2_mmu.stage2_tlb.walker.walks            0                       # Table walker walks requested
system.cpu.itb.stage2_mmu.stage2_tlb.write_accesses            0                       # DTB write accesses
system.cpu.itb.stage2_mmu.stage2_tlb.write_hits            0                       # DTB write hits
system.cpu.itb.stage2_mmu.stage2_tlb.write_misses            0                       # DTB write misses
system.cpu.itb.walker.walkRequestOrigin_Requested::Data            0                       # Table walker requests started/completed, data/inst
system.cpu.itb.walker.walkRequestOrigin_Requested::Inst            0                       # Table walker requests started/completed, data/inst
system.cpu.itb.walker.walkRequestOrigin_Requested::total            0                       # Table walker requests started/completed, data/inst
system.cpu.itb.walker.walkRequestOrigin_Completed::Data            0                       # Table walker requests started/completed, data/inst
system.cpu.itb.walker.walkRequestOrigin_Completed::Inst            0                       # Table walker requests started/completed, data/inst
system.cpu.itb.walker.walkRequestOrigin_Completed::total            0                       # Table walker requests started/completed, data/inst
system.cpu.itb.walker.walkRequestOrigin::total            0                       # Table walker requests started/completed, data/inst
system.cpu.itb.walker.walks                         0                       # Table walker walks requested
system.cpu.itb.write_accesses                       0                       # DTB write accesses
system.cpu.itb.write_hits                           0                       # DTB write hits
system.cpu.itb.write_misses                         0                       # DTB write misses
system.cpu.memDep0.conflictingLoads             44735                       # Number of conflicting loads.
system.cpu.memDep0.conflictingStores            97614                       # Number of conflicting stores.
system.cpu.memDep0.insertedLoads              3258236                       # Number of loads inserted to the mem dependence unit.
system.cpu.memDep0.insertedStores             1837306                       # Number of stores inserted to the mem dependence unit.
system.cpu.misc_regfile_reads                 9401636                       # number of misc regfile reads
system.cpu.misc_regfile_writes                  60935                       # number of misc regfile writes
system.cpu.numCycles                          7581441                       # number of cpu cycles simulated
system.cpu.numWorkItemsCompleted                    0                       # number of work items this cpu completed
system.cpu.numWorkItemsStarted                      0                       # number of work items this cpu started
system.cpu.rename.BlockCycles                  678405                       # Number of cycles rename is blocking
system.cpu.rename.CommittedMaps              11629682                       # Number of HB maps that are committed
system.cpu.rename.IQFullEvents                  76541                       # Number of times rename has blocked due to IQ full
system.cpu.rename.IdleCycles                   983816                       # Number of cycles rename is idle
system.cpu.rename.LQFullEvents                 772616                       # Number of times rename has blocked due to LQ full
system.cpu.rename.ROBFullEvents                  1551                       # Number of times rename has blocked due to ROB full
system.cpu.rename.RenameLookups              22106613                       # Number of register rename lookups that rename has made
system.cpu.rename.RenamedInsts               13599962                       # Number of instructions processed by rename
system.cpu.rename.RenamedOperands            13928820                       # Number of destination operands rename has renamed
system.cpu.rename.RunCycles                   2091854                       # Number of cycles rename is running
system.cpu.rename.SQFullEvents                 847374                       # Number of times rename has blocked due to SQ full
system.cpu.rename.SquashCycles                  36113                       # Number of cycles rename is squashing
system.cpu.rename.UnblockCycles               1785021                       # Number of cycles rename is unblocking
system.cpu.rename.UndoneMaps                  2299083                       # Number of HB maps that are undone due to squashing
system.cpu.rename.int_rename_lookups         17842382                       # Number of integer rename lookups
system.cpu.rename.serializeStallCycles        1940913                       # count of cycles rename stalled for serializing inst
system.cpu.rename.serializingInsts              47399                       # count of serializing insts renamed
system.cpu.rename.skidInsts                   1173774                       # count of insts added to the skid buffer
system.cpu.rename.tempSerializingInsts            210                       # count of temporary serializing insts renamed
system.cpu.rename.vec_rename_lookups           110098                       # Number of vector rename lookups
system.cpu.rob.rob_reads                     19653699                       # The number of ROB reads
system.cpu.rob.rob_writes                    26975876                       # The number of ROB writes
system.cpu.timesIdled                             667                       # Number of times that the entire CPU went into an idle state and unscheduled itself
system.cpu.vec_regfile_reads                    82698                       # number of vector regfile reads
system.cpu.vec_regfile_writes                   85749                       # number of vector regfile writes
system.cpu.workload.numSyscalls                    90                       # Number of system calls
system.membus.snoop_filter.hit_multi_requests            0                       # Number of requests hitting in the snoop filter with multiple (>1) holders of the requested data.
system.membus.snoop_filter.hit_multi_snoops            0                       # Number of snoops hitting in the snoop filter with multiple (>1) holders of the requested data.
system.membus.snoop_filter.hit_single_requests          131                       # Number of requests hitting in the snoop filter with a single holder of the requested data.
system.membus.snoop_filter.hit_single_snoops            0                       # Number of snoops hitting in the snoop filter with a single holder of the requested data.
system.membus.snoop_filter.tot_requests         93686                       # Total number of requests made to the snoop filter.
system.membus.snoop_filter.tot_snoops               0                       # Total number of snoops made to the snoop filter.
system.tol2bus.snoop_filter.hit_multi_requests            1                       # Number of requests hitting in the snoop filter with multiple (>1) holders of the requested data.
system.tol2bus.snoop_filter.hit_multi_snoops            0                       # Number of snoops hitting in the snoop filter with multiple (>1) holders of the requested data.
system.tol2bus.snoop_filter.hit_single_requests       118973                       # Number of requests hitting in the snoop filter with a single holder of the requested data.
system.tol2bus.snoop_filter.hit_single_snoops           48                       # Number of snoops hitting in the snoop filter with a single holder of the requested data.
system.tol2bus.snoop_filter.tot_requests       239693                       # Total number of requests made to the snoop filter.
system.tol2bus.snoop_filter.tot_snoops             48                       # Total number of snoops made to the snoop filter.
system.membus.trans_dist::ReadResp               8785                       # Transaction distribution
system.membus.trans_dist::WritebackDirty          122                       # Transaction distribution
system.membus.trans_dist::CleanEvict                9                       # Transaction distribution
system.membus.trans_dist::ReadExReq             27419                       # Transaction distribution
system.membus.trans_dist::ReadExResp            27419                       # Transaction distribution
system.membus.trans_dist::ReadSharedReq          8785                       # Transaction distribution
system.membus.trans_dist::InvalidateReq         57351                       # Transaction distribution
system.membus.pkt_count_system.l2.mem_side::system.mem_ctrls.port       129890                       # Packet count per connected master and slave (bytes)
system.membus.pkt_count::total                 129890                       # Packet count per connected master and slave (bytes)
system.membus.pkt_size_system.l2.mem_side::system.mem_ctrls.port      2324864                       # Cumulative packet size per connected master and slave (bytes)
system.membus.pkt_size::total                 2324864                       # Cumulative packet size per connected master and slave (bytes)
system.membus.snoops                                0                       # Total snoops (count)
system.membus.snoopTraffic                          0                       # Total snoop traffic (bytes)
system.membus.snoop_fanout::samples             93555                       # Request fanout histogram
system.membus.snoop_fanout::mean                    0                       # Request fanout histogram
system.membus.snoop_fanout::stdev                   0                       # Request fanout histogram
system.membus.snoop_fanout::underflows              0      0.00%      0.00% # Request fanout histogram
system.membus.snoop_fanout::0                   93555    100.00%    100.00% # Request fanout histogram
system.membus.snoop_fanout::1                       0      0.00%    100.00% # Request fanout histogram
system.membus.snoop_fanout::overflows               0      0.00%    100.00% # Request fanout histogram
system.membus.snoop_fanout::min_value               0                       # Request fanout histogram
system.membus.snoop_fanout::max_value               0                       # Request fanout histogram
system.membus.snoop_fanout::total               93555                       # Request fanout histogram
system.membus.reqLayer0.occupancy           101507500                       # Layer occupancy (ticks)
system.membus.reqLayer0.utilization               2.7                       # Layer utilization (%)
system.membus.respLayer1.occupancy          189955250                       # Layer occupancy (ticks)
system.membus.respLayer1.utilization              5.0                       # Layer utilization (%)
system.membus.power_state.pwrStateResidencyTicks::UNDEFINED   3790720000                       # Cumulative time (in ticks) in various power states
system.tol2bus.trans_dist::ReadResp             25298                       # Transaction distribution
system.tol2bus.trans_dist::WritebackDirty       113201                       # Transaction distribution
system.tol2bus.trans_dist::WritebackClean          366                       # Transaction distribution
system.tol2bus.trans_dist::CleanEvict            5585                       # Transaction distribution
system.tol2bus.trans_dist::ReadExReq            38070                       # Transaction distribution
system.tol2bus.trans_dist::ReadExResp           38070                       # Transaction distribution
system.tol2bus.trans_dist::ReadCleanReq          1089                       # Transaction distribution
system.tol2bus.trans_dist::ReadSharedReq        24209                       # Transaction distribution
system.tol2bus.trans_dist::InvalidateReq        57352                       # Transaction distribution
system.tol2bus.trans_dist::InvalidateResp        57352                       # Transaction distribution
system.tol2bus.pkt_count_system.cpu.icache.mem_side::system.l2.cpu_side         2544                       # Packet count per connected master and slave (bytes)
system.tol2bus.pkt_count_system.cpu.dcache.mem_side::system.l2.cpu_side       357869                       # Packet count per connected master and slave (bytes)
system.tol2bus.pkt_count::total                360413                       # Packet count per connected master and slave (bytes)
system.tol2bus.pkt_size_system.cpu.icache.mem_side::system.l2.cpu_side        93120                       # Cumulative packet size per connected master and slave (bytes)
system.tol2bus.pkt_size_system.cpu.dcache.mem_side::system.l2.cpu_side     11222912                       # Cumulative packet size per connected master and slave (bytes)
system.tol2bus.pkt_size::total               11316032                       # Cumulative packet size per connected master and slave (bytes)
system.tol2bus.snoops                             179                       # Total snoops (count)
system.tol2bus.snoopTraffic                      7808                       # Total snoop traffic (bytes)
system.tol2bus.snoop_fanout::samples           120899                       # Request fanout histogram
system.tol2bus.snoop_fanout::mean            0.000405                       # Request fanout histogram
system.tol2bus.snoop_fanout::stdev           0.020128                       # Request fanout histogram
system.tol2bus.snoop_fanout::underflows             0      0.00%      0.00% # Request fanout histogram
system.tol2bus.snoop_fanout::0                 120850     99.96%     99.96% # Request fanout histogram
system.tol2bus.snoop_fanout::1                     49      0.04%    100.00% # Request fanout histogram
system.tol2bus.snoop_fanout::2                      0      0.00%    100.00% # Request fanout histogram
system.tol2bus.snoop_fanout::overflows              0      0.00%    100.00% # Request fanout histogram
system.tol2bus.snoop_fanout::min_value              0                       # Request fanout histogram
system.tol2bus.snoop_fanout::max_value              1                       # Request fanout histogram
system.tol2bus.snoop_fanout::total             120899                       # Request fanout histogram
system.tol2bus.reqLayer0.occupancy          233321901                       # Layer occupancy (ticks)
system.tol2bus.reqLayer0.utilization              6.2                       # Layer utilization (%)
system.tol2bus.respLayer1.occupancy         122104979                       # Layer occupancy (ticks)
system.tol2bus.respLayer1.utilization             3.2                       # Layer utilization (%)
system.tol2bus.respLayer0.occupancy           1633500                       # Layer occupancy (ticks)
system.tol2bus.respLayer0.utilization             0.0                       # Layer utilization (%)
system.tol2bus.power_state.pwrStateResidencyTicks::UNDEFINED   3790720000                       # Cumulative time (in ticks) in various power states
system.voltage_domain.voltage                       1                       # Voltage in Volts
system.clk_domain.clock                          1000                       # Clock period in ticks
system.l2.demand_hits::.cpu.inst                  203                       # number of demand (read+write) hits
system.l2.demand_hits::.cpu.data                26892                       # number of demand (read+write) hits
system.l2.demand_hits::.cpu.icache.prefetcher           69                       # number of demand (read+write) hits
system.l2.demand_hits::total                    27164                       # number of demand (read+write) hits
system.l2.overall_hits::.cpu.inst                 203                       # number of overall hits
system.l2.overall_hits::.cpu.data               26892                       # number of overall hits
system.l2.overall_hits::.cpu.icache.prefetcher           69                       # number of overall hits
system.l2.overall_hits::total                   27164                       # number of overall hits
system.l2.demand_misses::.cpu.inst                817                       # number of demand (read+write) misses
system.l2.demand_misses::.cpu.data              35387                       # number of demand (read+write) misses
system.l2.demand_misses::total                  36204                       # number of demand (read+write) misses
system.l2.overall_misses::.cpu.inst               817                       # number of overall misses
system.l2.overall_misses::.cpu.data             35387                       # number of overall misses
system.l2.overall_misses::total                 36204                       # number of overall misses
system.l2.demand_miss_latency::.cpu.inst     63939500                       # number of demand (read+write) miss cycles
system.l2.demand_miss_latency::.cpu.data   2740496500                       # number of demand (read+write) miss cycles
system.l2.demand_miss_latency::total       2804436000                       # number of demand (read+write) miss cycles
system.l2.overall_miss_latency::.cpu.inst     63939500                       # number of overall miss cycles
system.l2.overall_miss_latency::.cpu.data   2740496500                       # number of overall miss cycles
system.l2.overall_miss_latency::total      2804436000                       # number of overall miss cycles
system.l2.demand_accesses::.cpu.inst             1020                       # number of demand (read+write) accesses
system.l2.demand_accesses::.cpu.data            62279                       # number of demand (read+write) accesses
system.l2.demand_accesses::.cpu.icache.prefetcher           69                       # number of demand (read+write) accesses
system.l2.demand_accesses::total                63368                       # number of demand (read+write) accesses
system.l2.overall_accesses::.cpu.inst            1020                       # number of overall (read+write) accesses
system.l2.overall_accesses::.cpu.data           62279                       # number of overall (read+write) accesses
system.l2.overall_accesses::.cpu.icache.prefetcher           69                       # number of overall (read+write) accesses
system.l2.overall_accesses::total               63368                       # number of overall (read+write) accesses
system.l2.demand_miss_rate::.cpu.inst        0.800980                       # miss rate for demand accesses
system.l2.demand_miss_rate::.cpu.data        0.568201                       # miss rate for demand accesses
system.l2.demand_miss_rate::total            0.571329                       # miss rate for demand accesses
system.l2.overall_miss_rate::.cpu.inst       0.800980                       # miss rate for overall accesses
system.l2.overall_miss_rate::.cpu.data       0.568201                       # miss rate for overall accesses
system.l2.overall_miss_rate::total           0.571329                       # miss rate for overall accesses
system.l2.demand_avg_miss_latency::.cpu.inst 78261.321909                       # average overall miss latency
system.l2.demand_avg_miss_latency::.cpu.data 77443.595106                       # average overall miss latency
system.l2.demand_avg_miss_latency::total 77462.048392                       # average overall miss latency
system.l2.overall_avg_miss_latency::.cpu.inst 78261.321909                       # average overall miss latency
system.l2.overall_avg_miss_latency::.cpu.data 77443.595106                       # average overall miss latency
system.l2.overall_avg_miss_latency::total 77462.048392                       # average overall miss latency
system.l2.blocked_cycles::no_mshrs                  0                       # number of cycles access was blocked
system.l2.blocked_cycles::no_targets                0                       # number of cycles access was blocked
system.l2.blocked::no_mshrs                         0                       # number of cycles access was blocked
system.l2.blocked::no_targets                       0                       # number of cycles access was blocked
system.l2.avg_blocked_cycles::no_mshrs            nan                       # average number of cycles each access was blocked
system.l2.avg_blocked_cycles::no_targets          nan                       # average number of cycles each access was blocked
system.l2.writebacks::.writebacks                 122                       # number of writebacks
system.l2.writebacks::total                       122                       # number of writebacks
system.l2.demand_mshr_misses::.cpu.inst           817                       # number of demand (read+write) MSHR misses
system.l2.demand_mshr_misses::.cpu.data         35387                       # number of demand (read+write) MSHR misses
system.l2.demand_mshr_misses::total             36204                       # number of demand (read+write) MSHR misses
system.l2.overall_mshr_misses::.cpu.inst          817                       # number of overall MSHR misses
system.l2.overall_mshr_misses::.cpu.data        35387                       # number of overall MSHR misses
system.l2.overall_mshr_misses::total            36204                       # number of overall MSHR misses
system.l2.demand_mshr_miss_latency::.cpu.inst     55768502                       # number of demand (read+write) MSHR miss cycles
system.l2.demand_mshr_miss_latency::.cpu.data   2386626500                       # number of demand (read+write) MSHR miss cycles
system.l2.demand_mshr_miss_latency::total   2442395002                       # number of demand (read+write) MSHR miss cycles
system.l2.overall_mshr_miss_latency::.cpu.inst     55768502                       # number of overall MSHR miss cycles
system.l2.overall_mshr_miss_latency::.cpu.data   2386626500                       # number of overall MSHR miss cycles
system.l2.overall_mshr_miss_latency::total   2442395002                       # number of overall MSHR miss cycles
system.l2.demand_mshr_miss_rate::.cpu.inst     0.800980                       # mshr miss rate for demand accesses
system.l2.demand_mshr_miss_rate::.cpu.data     0.568201                       # mshr miss rate for demand accesses
system.l2.demand_mshr_miss_rate::total       0.571329                       # mshr miss rate for demand accesses
system.l2.overall_mshr_miss_rate::.cpu.inst     0.800980                       # mshr miss rate for overall accesses
system.l2.overall_mshr_miss_rate::.cpu.data     0.568201                       # mshr miss rate for overall accesses
system.l2.overall_mshr_miss_rate::total      0.571329                       # mshr miss rate for overall accesses
system.l2.demand_avg_mshr_miss_latency::.cpu.inst 68260.100367                       # average overall mshr miss latency
system.l2.demand_avg_mshr_miss_latency::.cpu.data 67443.595106                       # average overall mshr miss latency
system.l2.demand_avg_mshr_miss_latency::total 67462.020826                       # average overall mshr miss latency
system.l2.overall_avg_mshr_miss_latency::.cpu.inst 68260.100367                       # average overall mshr miss latency
system.l2.overall_avg_mshr_miss_latency::.cpu.data 67443.595106                       # average overall mshr miss latency
system.l2.overall_avg_mshr_miss_latency::total 67462.020826                       # average overall mshr miss latency
system.l2.replacements                            179                       # number of replacements
system.l2.WritebackDirty_hits::.writebacks       113079                       # number of WritebackDirty hits
system.l2.WritebackDirty_hits::total           113079                       # number of WritebackDirty hits
system.l2.WritebackDirty_accesses::.writebacks       113079                       # number of WritebackDirty accesses(hits+misses)
system.l2.WritebackDirty_accesses::total       113079                       # number of WritebackDirty accesses(hits+misses)
system.l2.WritebackClean_hits::.writebacks          366                       # number of WritebackClean hits
system.l2.WritebackClean_hits::total              366                       # number of WritebackClean hits
system.l2.WritebackClean_accesses::.writebacks          366                       # number of WritebackClean accesses(hits+misses)
system.l2.WritebackClean_accesses::total          366                       # number of WritebackClean accesses(hits+misses)
system.l2.ReadExReq_hits::.cpu.data             10651                       # number of ReadExReq hits
system.l2.ReadExReq_hits::total                 10651                       # number of ReadExReq hits
system.l2.ReadExReq_misses::.cpu.data           27419                       # number of ReadExReq misses
system.l2.ReadExReq_misses::total               27419                       # number of ReadExReq misses
system.l2.ReadExReq_miss_latency::.cpu.data   2129701500                       # number of ReadExReq miss cycles
system.l2.ReadExReq_miss_latency::total    2129701500                       # number of ReadExReq miss cycles
system.l2.ReadExReq_accesses::.cpu.data         38070                       # number of ReadExReq accesses(hits+misses)
system.l2.ReadExReq_accesses::total             38070                       # number of ReadExReq accesses(hits+misses)
system.l2.ReadExReq_miss_rate::.cpu.data     0.720226                       # miss rate for ReadExReq accesses
system.l2.ReadExReq_miss_rate::total         0.720226                       # miss rate for ReadExReq accesses
system.l2.ReadExReq_avg_miss_latency::.cpu.data 77672.471644                       # average ReadExReq miss latency
system.l2.ReadExReq_avg_miss_latency::total 77672.471644                       # average ReadExReq miss latency
system.l2.ReadExReq_mshr_misses::.cpu.data        27419                       # number of ReadExReq MSHR misses
system.l2.ReadExReq_mshr_misses::total          27419                       # number of ReadExReq MSHR misses
system.l2.ReadExReq_mshr_miss_latency::.cpu.data   1855511500                       # number of ReadExReq MSHR miss cycles
system.l2.ReadExReq_mshr_miss_latency::total   1855511500                       # number of ReadExReq MSHR miss cycles
system.l2.ReadExReq_mshr_miss_rate::.cpu.data     0.720226                       # mshr miss rate for ReadExReq accesses
system.l2.ReadExReq_mshr_miss_rate::total     0.720226                       # mshr miss rate for ReadExReq accesses
system.l2.ReadExReq_avg_mshr_miss_latency::.cpu.data 67672.471644                       # average ReadExReq mshr miss latency
system.l2.ReadExReq_avg_mshr_miss_latency::total 67672.471644                       # average ReadExReq mshr miss latency
system.l2.ReadCleanReq_hits::.cpu.inst            203                       # number of ReadCleanReq hits
system.l2.ReadCleanReq_hits::.cpu.icache.prefetcher           69                       # number of ReadCleanReq hits
system.l2.ReadCleanReq_hits::total                272                       # number of ReadCleanReq hits
system.l2.ReadCleanReq_misses::.cpu.inst          817                       # number of ReadCleanReq misses
system.l2.ReadCleanReq_misses::total              817                       # number of ReadCleanReq misses
system.l2.ReadCleanReq_miss_latency::.cpu.inst     63939500                       # number of ReadCleanReq miss cycles
system.l2.ReadCleanReq_miss_latency::total     63939500                       # number of ReadCleanReq miss cycles
system.l2.ReadCleanReq_accesses::.cpu.inst         1020                       # number of ReadCleanReq accesses(hits+misses)
system.l2.ReadCleanReq_accesses::.cpu.icache.prefetcher           69                       # number of ReadCleanReq accesses(hits+misses)
[...]
system.cpu.dcache.overall_miss_latency::total  16250815302                       # number of overall miss cycles
system.cpu.dcache.demand_accesses::.cpu.data      4542297                       # number of demand (read+write) accesses
system.cpu.dcache.demand_accesses::total      4542297                       # number of demand (read+write) accesses
system.cpu.dcache.overall_accesses::.cpu.data      4542359                       # number of overall (read+write) accesses
system.cpu.dcache.overall_accesses::total      4542359                       # number of overall (read+write) accesses
system.cpu.dcache.demand_miss_rate::.cpu.data     0.079990                       # miss rate for demand accesses
system.cpu.dcache.demand_miss_rate::total     0.079990                       # miss rate for demand accesses
system.cpu.dcache.overall_miss_rate::.cpu.data     0.079992                       # miss rate for overall accesses
system.cpu.dcache.overall_miss_rate::total     0.079992                       # miss rate for overall accesses
system.cpu.dcache.demand_avg_miss_latency::.cpu.data 44726.440125                       # average overall miss latency
system.cpu.dcache.demand_avg_miss_latency::total 44726.440125                       # average overall miss latency
system.cpu.dcache.overall_avg_miss_latency::.cpu.data 44724.839899                       # average overall miss latency
system.cpu.dcache.overall_avg_miss_latency::total 44724.839899                       # average overall miss latency
system.cpu.dcache.blocked_cycles::no_mshrs        27503                       # number of cycles access was blocked
system.cpu.dcache.blocked_cycles::no_targets          626                       # number of cycles access was blocked
system.cpu.dcache.blocked::no_mshrs              1874                       # number of cycles access was blocked
system.cpu.dcache.blocked::no_targets              20                       # number of cycles access was blocked
system.cpu.dcache.avg_blocked_cycles::no_mshrs    14.676094                       # average number of cycles each access was blocked
system.cpu.dcache.avg_blocked_cycles::no_targets    31.300000                       # average number of cycles each access was blocked
system.cpu.dcache.writebacks::.writebacks       113079                       # number of writebacks
system.cpu.dcache.writebacks::total            113079                       # number of writebacks
system.cpu.dcache.demand_mshr_hits::.cpu.data       243722                       # number of demand (read+write) MSHR hits
system.cpu.dcache.demand_mshr_hits::total       243722                       # number of demand (read+write) MSHR hits
system.cpu.dcache.overall_mshr_hits::.cpu.data       243722                       # number of overall MSHR hits
system.cpu.dcache.overall_mshr_hits::total       243722                       # number of overall MSHR hits
system.cpu.dcache.demand_mshr_misses::.cpu.data       119616                       # number of demand (read+write) MSHR misses
system.cpu.dcache.demand_mshr_misses::total       119616                       # number of demand (read+write) MSHR misses
system.cpu.dcache.overall_mshr_misses::.cpu.data       119629                       # number of overall MSHR misses
system.cpu.dcache.overall_mshr_misses::total       119629                       # number of overall MSHR misses
system.cpu.dcache.demand_mshr_miss_latency::.cpu.data   5532268302                       # number of demand (read+write) MSHR miss cycles
system.cpu.dcache.demand_mshr_miss_latency::total   5532268302                       # number of demand (read+write) MSHR miss cycles
system.cpu.dcache.overall_mshr_miss_latency::.cpu.data   5532589302                       # number of overall MSHR miss cycles
system.cpu.dcache.overall_mshr_miss_latency::total   5532589302                       # number of overall MSHR miss cycles
system.cpu.dcache.demand_mshr_miss_rate::.cpu.data     0.026334                       # mshr miss rate for demand accesses
system.cpu.dcache.demand_mshr_miss_rate::total     0.026334                       # mshr miss rate for demand accesses
system.cpu.dcache.overall_mshr_miss_rate::.cpu.data     0.026336                       # mshr miss rate for overall accesses
system.cpu.dcache.overall_mshr_miss_rate::total     0.026336                       # mshr miss rate for overall accesses
system.cpu.dcache.demand_avg_mshr_miss_latency::.cpu.data 46250.236607                       # average overall mshr miss latency
system.cpu.dcache.demand_avg_mshr_miss_latency::total 46250.236607                       # average overall mshr miss latency
system.cpu.dcache.overall_avg_mshr_miss_latency::.cpu.data 46247.893922                       # average overall mshr miss latency
system.cpu.dcache.overall_avg_mshr_miss_latency::total 46247.893922                       # average overall mshr miss latency
system.cpu.dcache.replacements                 118607                       # number of replacements
system.cpu.dcache.ReadReq_hits::.cpu.data      2882907                       # number of ReadReq hits
system.cpu.dcache.ReadReq_hits::total         2882907                       # number of ReadReq hits
system.cpu.dcache.ReadReq_misses::.cpu.data        75637                       # number of ReadReq misses
system.cpu.dcache.ReadReq_misses::total         75637                       # number of ReadReq misses
system.cpu.dcache.ReadReq_miss_latency::.cpu.data   3536547500                       # number of ReadReq miss cycles
system.cpu.dcache.ReadReq_miss_latency::total   3536547500                       # number of ReadReq miss cycles
system.cpu.dcache.ReadReq_accesses::.cpu.data      2958544                       # number of ReadReq accesses(hits+misses)
system.cpu.dcache.ReadReq_accesses::total      2958544                       # number of ReadReq accesses(hits+misses)
system.cpu.dcache.ReadReq_miss_rate::.cpu.data     0.025566                       # miss rate for ReadReq accesses
system.cpu.dcache.ReadReq_miss_rate::total     0.025566                       # miss rate for ReadReq accesses
system.cpu.dcache.ReadReq_avg_miss_latency::.cpu.data 46756.845195                       # average ReadReq miss latency
system.cpu.dcache.ReadReq_avg_miss_latency::total 46756.845195                       # average ReadReq miss latency
system.cpu.dcache.ReadReq_mshr_hits::.cpu.data        51441                       # number of ReadReq MSHR hits
system.cpu.dcache.ReadReq_mshr_hits::total        51441                       # number of ReadReq MSHR hits
system.cpu.dcache.ReadReq_mshr_misses::.cpu.data        24196                       # number of ReadReq MSHR misses
system.cpu.dcache.ReadReq_mshr_misses::total        24196                       # number of ReadReq MSHR misses
system.cpu.dcache.ReadReq_mshr_miss_latency::.cpu.data    818940500                       # number of ReadReq MSHR miss cycles
system.cpu.dcache.ReadReq_mshr_miss_latency::total    818940500                       # number of ReadReq MSHR miss cycles
system.cpu.dcache.ReadReq_mshr_miss_rate::.cpu.data     0.008178                       # mshr miss rate for ReadReq accesses
system.cpu.dcache.ReadReq_mshr_miss_rate::total     0.008178                       # mshr miss rate for ReadReq accesses
system.cpu.dcache.ReadReq_avg_mshr_miss_latency::.cpu.data 33846.110927                       # average ReadReq mshr miss latency
system.cpu.dcache.ReadReq_avg_mshr_miss_latency::total 33846.110927                       # average ReadReq mshr miss latency
system.cpu.dcache.WriteReq_hits::.cpu.data      1296052                       # number of WriteReq hits
system.cpu.dcache.WriteReq_hits::total        1296052                       # number of WriteReq hits
system.cpu.dcache.WriteReq_misses::.cpu.data       230359                       # number of WriteReq misses
system.cpu.dcache.WriteReq_misses::total       230359                       # number of WriteReq misses
system.cpu.dcache.WriteReq_miss_latency::.cpu.data  10288833457                       # number of WriteReq miss cycles
system.cpu.dcache.WriteReq_miss_latency::total  10288833457                       # number of WriteReq miss cycles
system.cpu.dcache.WriteReq_accesses::.cpu.data      1526411                       # number of WriteReq accesses(hits+misses)
system.cpu.dcache.WriteReq_accesses::total      1526411                       # number of WriteReq accesses(hits+misses)
system.cpu.dcache.WriteReq_miss_rate::.cpu.data     0.150915                       # miss rate for WriteReq accesses
system.cpu.dcache.WriteReq_miss_rate::total     0.150915                       # miss rate for WriteReq accesses
system.cpu.dcache.WriteReq_avg_miss_latency::.cpu.data 44664.343295                       # average WriteReq miss latency
system.cpu.dcache.WriteReq_avg_miss_latency::total 44664.343295                       # average WriteReq miss latency
system.cpu.dcache.WriteReq_mshr_hits::.cpu.data       192281                       # number of WriteReq MSHR hits
system.cpu.dcache.WriteReq_mshr_hits::total       192281                       # number of WriteReq MSHR hits
system.cpu.dcache.WriteReq_mshr_misses::.cpu.data        38078                       # number of WriteReq MSHR misses
system.cpu.dcache.WriteReq_mshr_misses::total        38078                       # number of WriteReq MSHR misses
system.cpu.dcache.WriteReq_mshr_miss_latency::.cpu.data   2345235457                       # number of WriteReq MSHR miss cycles
system.cpu.dcache.WriteReq_mshr_miss_latency::total   2345235457                       # number of WriteReq MSHR miss cycles
system.cpu.dcache.WriteReq_mshr_miss_rate::.cpu.data     0.024946                       # mshr miss rate for WriteReq accesses
system.cpu.dcache.WriteReq_mshr_miss_rate::total     0.024946                       # mshr miss rate for WriteReq accesses
system.cpu.dcache.WriteReq_avg_mshr_miss_latency::.cpu.data 61590.300357                       # average WriteReq mshr miss latency
system.cpu.dcache.WriteReq_avg_mshr_miss_latency::total 61590.300357                       # average WriteReq mshr miss latency
system.cpu.dcache.SoftPFReq_hits::.cpu.data           49                       # number of SoftPFReq hits
system.cpu.dcache.SoftPFReq_hits::total            49                       # number of SoftPFReq hits
system.cpu.dcache.SoftPFReq_misses::.cpu.data           13                       # number of SoftPFReq misses
system.cpu.dcache.SoftPFReq_misses::total           13                       # number of SoftPFReq misses
system.cpu.dcache.SoftPFReq_accesses::.cpu.data           62                       # number of SoftPFReq accesses(hits+misses)
system.cpu.dcache.SoftPFReq_accesses::total           62                       # number of SoftPFReq accesses(hits+misses)
system.cpu.dcache.SoftPFReq_miss_rate::.cpu.data     0.209677                       # miss rate for SoftPFReq accesses
system.cpu.dcache.SoftPFReq_miss_rate::total     0.209677                       # miss rate for SoftPFReq accesses
system.cpu.dcache.SoftPFReq_mshr_misses::.cpu.data           13                       # number of SoftPFReq MSHR misses
system.cpu.dcache.SoftPFReq_mshr_misses::total           13                       # number of SoftPFReq MSHR misses
system.cpu.dcache.SoftPFReq_mshr_miss_latency::.cpu.data       321000                       # number of SoftPFReq MSHR miss cycles
system.cpu.dcache.SoftPFReq_mshr_miss_latency::total       321000                       # number of SoftPFReq MSHR miss cycles
system.cpu.dcache.SoftPFReq_mshr_miss_rate::.cpu.data     0.209677                       # mshr miss rate for SoftPFReq accesses
system.cpu.dcache.SoftPFReq_mshr_miss_rate::total     0.209677                       # mshr miss rate for SoftPFReq accesses
system.cpu.dcache.SoftPFReq_avg_mshr_miss_latency::.cpu.data 24692.307692                       # average SoftPFReq mshr miss latency
system.cpu.dcache.SoftPFReq_avg_mshr_miss_latency::total 24692.307692                       # average SoftPFReq mshr miss latency
system.cpu.dcache.WriteLineReq_misses::.cpu.data        57342                       # number of WriteLineReq misses
system.cpu.dcache.WriteLineReq_misses::total        57342                       # number of WriteLineReq misses
system.cpu.dcache.WriteLineReq_miss_latency::.cpu.data   2425434345                       # number of WriteLineReq miss cycles
system.cpu.dcache.WriteLineReq_miss_latency::total   2425434345                       # number of WriteLineReq miss cycles
system.cpu.dcache.WriteLineReq_accesses::.cpu.data        57342                       # number of WriteLineReq accesses(hits+misses)
system.cpu.dcache.WriteLineReq_accesses::total        57342                       # number of WriteLineReq accesses(hits+misses)
system.cpu.dcache.WriteLineReq_miss_rate::.cpu.data            1                       # miss rate for WriteLineReq accesses
system.cpu.dcache.WriteLineReq_miss_rate::total            1                       # miss rate for WriteLineReq accesses
system.cpu.dcache.WriteLineReq_avg_miss_latency::.cpu.data 42297.693575                       # average WriteLineReq miss latency
system.cpu.dcache.WriteLineReq_avg_miss_latency::total 42297.693575                       # average WriteLineReq miss latency
system.cpu.dcache.WriteLineReq_mshr_misses::.cpu.data        57342                       # number of WriteLineReq MSHR misses
system.cpu.dcache.WriteLineReq_mshr_misses::total        57342                       # number of WriteLineReq MSHR misses
system.cpu.dcache.WriteLineReq_mshr_miss_latency::.cpu.data   2368092345                       # number of WriteLineReq MSHR miss cycles
system.cpu.dcache.WriteLineReq_mshr_miss_latency::total   2368092345                       # number of WriteLineReq MSHR miss cycles
system.cpu.dcache.WriteLineReq_mshr_miss_rate::.cpu.data            1                       # mshr miss rate for WriteLineReq accesses
system.cpu.dcache.WriteLineReq_mshr_miss_rate::total            1                       # mshr miss rate for WriteLineReq accesses
system.cpu.dcache.WriteLineReq_avg_mshr_miss_latency::.cpu.data 41297.693575                       # average WriteLineReq mshr miss latency
system.cpu.dcache.WriteLineReq_avg_mshr_miss_latency::total 41297.693575                       # average WriteLineReq mshr miss latency
system.cpu.dcache.LoadLockedReq_hits::.cpu.data           86                       # number of LoadLockedReq hits
system.cpu.dcache.LoadLockedReq_hits::total           86                       # number of LoadLockedReq hits
system.cpu.dcache.LoadLockedReq_misses::.cpu.data            3                       # number of LoadLockedReq misses
system.cpu.dcache.LoadLockedReq_misses::total            3                       # number of LoadLockedReq misses
system.cpu.dcache.LoadLockedReq_miss_latency::.cpu.data       185000                       # number of LoadLockedReq miss cycles
system.cpu.dcache.LoadLockedReq_miss_latency::total       185000                       # number of LoadLockedReq miss cycles
system.cpu.dcache.LoadLockedReq_accesses::.cpu.data           89                       # number of LoadLockedReq accesses(hits+misses)
system.cpu.dcache.LoadLockedReq_accesses::total           89                       # number of LoadLockedReq accesses(hits+misses)
system.cpu.dcache.LoadLockedReq_miss_rate::.cpu.data     0.033708                       # miss rate for LoadLockedReq accesses
system.cpu.dcache.LoadLockedReq_miss_rate::total     0.033708                       # miss rate for LoadLockedReq accesses
system.cpu.dcache.LoadLockedReq_avg_miss_latency::.cpu.data 61666.666667                       # average LoadLockedReq miss latency
system.cpu.dcache.LoadLockedReq_avg_miss_latency::total 61666.666667                       # average LoadLockedReq miss latency
system.cpu.dcache.LoadLockedReq_mshr_hits::.cpu.data            1                       # number of LoadLockedReq MSHR hits
system.cpu.dcache.LoadLockedReq_mshr_hits::total            1                       # number of LoadLockedReq MSHR hits
system.cpu.dcache.LoadLockedReq_mshr_misses::.cpu.data            2                       # number of LoadLockedReq MSHR misses
system.cpu.dcache.LoadLockedReq_mshr_misses::total            2                       # number of LoadLockedReq MSHR misses
system.cpu.dcache.LoadLockedReq_mshr_miss_latency::.cpu.data        84500                       # number of LoadLockedReq MSHR miss cycles
system.cpu.dcache.LoadLockedReq_mshr_miss_latency::total        84500                       # number of LoadLockedReq MSHR miss cycles
system.cpu.dcache.LoadLockedReq_mshr_miss_rate::.cpu.data     0.022472                       # mshr miss rate for LoadLockedReq accesses
system.cpu.dcache.LoadLockedReq_mshr_miss_rate::total     0.022472                       # mshr miss rate for LoadLockedReq accesses
system.cpu.dcache.LoadLockedReq_avg_mshr_miss_latency::.cpu.data        42250                       # average LoadLockedReq mshr miss latency
system.cpu.dcache.LoadLockedReq_avg_mshr_miss_latency::total        42250                       # average LoadLockedReq mshr miss latency
system.cpu.dcache.StoreCondReq_hits::.cpu.data           71                       # number of StoreCondReq hits
system.cpu.dcache.StoreCondReq_hits::total           71                       # number of StoreCondReq hits
system.cpu.dcache.StoreCondReq_accesses::.cpu.data           71                       # number of StoreCondReq accesses(hits+misses)
system.cpu.dcache.StoreCondReq_accesses::total           71                       # number of StoreCondReq accesses(hits+misses)
system.cpu.dcache.power_state.pwrStateResidencyTicks::UNDEFINED   3790720000                       # Cumulative time (in ticks) in various power states
system.cpu.dcache.tags.tagsinuse          1013.802978                       # Cycle average of tags in use
system.cpu.dcache.tags.total_refs             4298796                       # Total number of references to valid blocks.
system.cpu.dcache.tags.sampled_refs            119631                       # Sample count of references to valid blocks.
system.cpu.dcache.tags.avg_refs             35.933796                       # Average number of references to valid blocks.
system.cpu.dcache.tags.warmup_cycle            176500                       # Cycle when the warmup percentage was hit.
system.cpu.dcache.tags.occ_blocks::.cpu.data  1013.802978                       # Average occupied blocks per requestor
system.cpu.dcache.tags.occ_percent::.cpu.data     0.990042                       # Average percentage of cache occupancy
system.cpu.dcache.tags.occ_percent::total     0.990042                       # Average percentage of cache occupancy
system.cpu.dcache.tags.occ_task_id_blocks::1024         1024                       # Occupied blocks per task id
system.cpu.dcache.tags.age_task_id_blocks_1024::0          118                       # Occupied blocks per task id
system.cpu.dcache.tags.age_task_id_blocks_1024::1          717                       # Occupied blocks per task id
system.cpu.dcache.tags.age_task_id_blocks_1024::2          189                       # Occupied blocks per task id
system.cpu.dcache.tags.occ_task_id_percent::1024            1                       # Percentage of cache occupancy per task id
system.cpu.dcache.tags.tag_accesses           9204669                       # Number of tag accesses
system.cpu.dcache.tags.data_accesses          9204669                       # Number of data accesses
system.cpu.dcache.tags.power_state.pwrStateResidencyTicks::UNDEFINED   3790720000                       # Cumulative time (in ticks) in various power states
system.cpu.power_state.pwrStateResidencyTicks::ON   3790720000                       # Cumulative time (in ticks) in various power states

---------- End Simulation Statistics   ----------
