
---------- Begin Simulation Statistics ----------
final_tick                                 2809958500                       # Number of ticks from beginning of simulation (restored from checkpoints and never reset)
host_inst_rate                                 129164                       # Simulator instruction rate (inst/s)
host_mem_usage                                 880292                       # Number of bytes of host memory used
host_op_rate                                   146902                       # Simulator op (including micro ops) rate (op/s)
host_seconds                                    77.42                       # Real time elapsed on the host
host_tick_rate                               36294403                       # Simulator tick rate (ticks/s)
sim_freq                                 1000000000000                       # Frequency of simulated ticks
sim_insts                                    10000001                       # Number of instructions simulated
sim_ops                                      11373297                       # Number of ops (including micro ops) simulated
sim_seconds                                  0.002810                       # Number of seconds simulated
sim_ticks                                  2809958500                       # Number of ticks simulated
system.cpu.branchPred.BTBCorrect                    0                       # Number of correct BTB predictions (this stat may not work properly.
system.cpu.branchPred.BTBHitPct             98.203829                       # BTB Hit Percentage
system.cpu.branchPred.BTBHits                 1369255                       # Number of BTB hits
system.cpu.branchPred.BTBLookups              1394299                       # Number of BTB lookups
system.cpu.branchPred.RASInCorrect                 21                       # Number of incorrect RAS predictions.
system.cpu.branchPred.condIncorrect             46570                       # Number of conditional branches incorrect
system.cpu.branchPred.condPredicted           2468739                       # Number of conditional branches predicted
system.cpu.branchPred.indirectHits              28404                       # Number of indirect target hits.
system.cpu.branchPred.indirectLookups           32056                       # Number of indirect predictor lookups.
system.cpu.branchPred.indirectMisses             3652                       # Number of indirect misses.
system.cpu.branchPred.lookups                 2870358                       # Number of BP lookups
system.cpu.branchPred.usedRAS                  136313                       # Number of times the RAS was used to get a target.
system.cpu.branchPredindirectMispredicted          861                       # Number of mispredicted indirect branches.
system.cpu.cc_regfile_reads                   6038230                       # number of cc regfile reads
system.cpu.cc_regfile_writes                  6041203                       # number of cc regfile writes
system.cpu.commit.amos                              0                       # Number of atomic instructions committed
system.cpu.commit.branchMispredicts             39593                       # The number of times a branch was mispredicted
system.cpu.commit.branches                    2506891                       # Number of branches committed
system.cpu.commit.bw_lim_events                490406                       # number cycles where commit BW limit reached
system.cpu.commit.commitNonSpecStalls            5294                       # The number of times commit has been forced to stall to communicate backwards
system.cpu.commit.commitSquashedInsts          736016                       # The number of squashed insts skipped by commit
system.cpu.commit.committedInsts             10012014                       # Number of instructions committed
system.cpu.commit.committedOps               11385310                       # Number of ops (including micro ops) committed
system.cpu.commit.committed_per_cycle::samples      5293712                       # Number of insts commited each cycle
system.cpu.commit.committed_per_cycle::mean     2.150723                       # Number of insts commited each cycle
system.cpu.commit.committed_per_cycle::stdev     2.553059                       # Number of insts commited each cycle
system.cpu.commit.committed_per_cycle::underflows            0      0.00%      0.00% # Number of insts commited each cycle
system.cpu.commit.committed_per_cycle::0      1809778     34.19%     34.19% # Number of insts commited each cycle
system.cpu.commit.committed_per_cycle::1      1145122     21.63%     55.82% # Number of insts commited each cycle
system.cpu.commit.committed_per_cycle::2       804051     15.19%     71.01% # Number of insts commited each cycle
system.cpu.commit.committed_per_cycle::3       397567      7.51%     78.52% # Number of insts commited each cycle
system.cpu.commit.committed_per_cycle::4       135782      2.56%     81.08% # Number of insts commited each cycle
system.cpu.commit.committed_per_cycle::5       153428      2.90%     83.98% # Number of insts commited each cycle
system.cpu.commit.committed_per_cycle::6       297177      5.61%     89.60% # Number of insts commited each cycle
system.cpu.commit.committed_per_cycle::7        60401      1.14%     90.74% # Number of insts commited each cycle
system.cpu.commit.committed_per_cycle::8       490406      9.26%    100.00% # Number of insts commited each cycle
system.cpu.commit.committed_per_cycle::overflows            0      0.00%    100.00% # Number of insts commited each cycle
system.cpu.commit.committed_per_cycle::min_value            0                       # Number of insts commited each cycle
system.cpu.commit.committed_per_cycle::max_value            8                       # Number of insts commited each cycle
system.cpu.commit.committed_per_cycle::total      5293712                       # Number of insts commited each cycle
system.cpu.commit.fp_insts                          0                       # Number of committed floating point instructions.
system.cpu.commit.function_calls               116697                       # Number of function calls committed.
system.cpu.commit.int_insts                   9271243                       # Number of committed integer instructions.
system.cpu.commit.loads                       1741320                       # Number of loads committed
system.cpu.commit.membars                        5240                       # Number of memory barriers committed
system.cpu.commit.op_class_0::No_OpClass            5      0.00%      0.00% # Class of committed instruction
system.cpu.commit.op_class_0::IntAlu          8203252     72.05%     72.05% # Class of committed instruction
system.cpu.commit.op_class_0::IntMult           27722      0.24%     72.29% # Class of committed instruction
system.cpu.commit.op_class_0::IntDiv             1042      0.01%     72.30% # Class of committed instruction
system.cpu.commit.op_class_0::FloatAdd          86244      0.76%     73.06% # Class of committed instruction
system.cpu.commit.op_class_0::FloatCmp           5938      0.05%     73.11% # Class of committed instruction
system.cpu.commit.op_class_0::FloatCvt            506      0.00%     73.12% # Class of committed instruction
system.cpu.commit.op_class_0::FloatMult           719      0.01%     73.12% # Class of committed instruction
system.cpu.commit.op_class_0::FloatMultAcc        83053      0.73%     73.85% # Class of committed instruction
system.cpu.commit.op_class_0::FloatDiv             63      0.00%     73.85% # Class of committed instruction
system.cpu.commit.op_class_0::FloatMisc          5519      0.05%     73.90% # Class of committed instruction
system.cpu.commit.op_class_0::FloatSqrt          4214      0.04%     73.94% # Class of committed instruction
system.cpu.commit.op_class_0::SimdAdd              22      0.00%     73.94% # Class of committed instruction
system.cpu.commit.op_class_0::SimdAddAcc            0      0.00%     73.94% # Class of committed instruction
system.cpu.commit.op_class_0::SimdAlu              22      0.00%     73.94% # Class of committed instruction
system.cpu.commit.op_class_0::SimdCmp              20      0.00%     73.94% # Class of committed instruction
system.cpu.commit.op_class_0::SimdCvt              10      0.00%     73.94% # Class of committed instruction
system.cpu.commit.op_class_0::SimdMisc          28016      0.25%     74.19% # Class of committed instruction
system.cpu.commit.op_class_0::SimdMult              0      0.00%     74.19% # Class of committed instruction
system.cpu.commit.op_class_0::SimdMultAcc            0      0.00%     74.19% # Class of committed instruction
system.cpu.commit.op_class_0::SimdShift             0      0.00%     74.19% # Class of committed instruction
system.cpu.commit.op_class_0::SimdShiftAcc            0      0.00%     74.19% # Class of committed instruction
system.cpu.commit.op_class_0::SimdDiv               0      0.00%     74.19% # Class of committed instruction
system.cpu.commit.op_class_0::SimdSqrt              0      0.00%     74.19% # Class of committed instruction
system.cpu.commit.op_class_0::SimdFloatAdd            0      0.00%     74.19% # Class of committed instruction
system.cpu.commit.op_class_0::SimdFloatAlu            0      0.00%     74.19% # Class of committed instruction
system.cpu.commit.op_class_0::SimdFloatCmp            0      0.00%     74.19% # Class of committed instruction
system.cpu.commit.op_class_0::SimdFloatCvt            0      0.00%     74.19% # Class of committed instruction
system.cpu.commit.op_class_0::SimdFloatDiv            0      0.00%     74.19% # Class of committed instruction
system.cpu.commit.op_class_0::SimdFloatMisc            0      0.00%     74.19% # Class of committed instruction
system.cpu.commit.op_class_0::SimdFloatMult            0      0.00%     74.19% # Class of committed instruction
system.cpu.commit.op_class_0::SimdFloatMultAcc            0      0.00%     74.19% # Class of committed instruction
system.cpu.commit.op_class_0::SimdFloatSqrt            0      0.00%     74.19% # Class of committed instruction
system.cpu.commit.op_class_0::SimdReduceAdd            0      0.00%     74.19% # Class of committed instruction
system.cpu.commit.op_class_0::SimdReduceAlu            0      0.00%     74.19% # Class of committed instruction
system.cpu.commit.op_class_0::SimdReduceCmp            0      0.00%     74.19% # Class of committed instruction
system.cpu.commit.op_class_0::SimdFloatReduceAdd            0      0.00%     74.19% # Class of committed instruction
system.cpu.commit.op_class_0::SimdFloatReduceCmp            0      0.00%     74.19% # Class of committed instruction
system.cpu.commit.op_class_0::SimdAes               0      0.00%     74.19% # Class of committed instruction
system.cpu.commit.op_class_0::SimdAesMix            0      0.00%     74.19% # Class of committed instruction
system.cpu.commit.op_class_0::SimdSha1Hash            0      0.00%     74.19% # Class of committed instruction
system.cpu.commit.op_class_0::SimdSha1Hash2            0      0.00%     74.19% # Class of committed instruction
system.cpu.commit.op_class_0::SimdSha256Hash            0      0.00%     74.19% # Class of committed instruction
system.cpu.commit.op_class_0::SimdSha256Hash2            0      0.00%     74.19% # Class of committed instruction
system.cpu.commit.op_class_0::SimdShaSigma2            0      0.00%     74.19% # Class of committed instruction
system.cpu.commit.op_class_0::SimdShaSigma3            0      0.00%     74.19% # Class of committed instruction
system.cpu.commit.op_class_0::SimdPredAlu            0      0.00%     74.19% # Class of committed instruction
system.cpu.commit.op_class_0::MemRead         1741320     15.29%     89.48% # Class of committed instruction
system.cpu.commit.op_class_0::MemWrite        1197623     10.52%    100.00% # Class of committed instruction
system.cpu.commit.op_class_0::FloatMemRead            0      0.00%    100.00% # Class of committed instruction
system.cpu.commit.op_class_0::FloatMemWrite            0      0.00%    100.00% # Class of committed instruction
system.cpu.commit.op_class_0::IprAccess             0      0.00%    100.00% # Class of committed instruction
system.cpu.commit.op_class_0::InstPrefetch            0      0.00%    100.00% # Class of committed instruction
system.cpu.commit.op_class_0::total          11385310                       # Class of committed instruction
system.cpu.commit.refs                        2938943                       # Number of memory references committed
system.cpu.commit.swp_count                         0                       # Number of s/w prefetches committed
system.cpu.commit.vec_insts                    580319                       # Number of committed Vector instructions.
system.cpu.committedInsts                    10000001                       # Number of Instructions Simulated
system.cpu.committedOps                      11373297                       # Number of Ops (including micro ops) Simulated
system.cpu.cpi                               0.561992                       # CPI: Cycles Per Instruction
system.cpu.cpi_total                         0.561992                       # CPI: Total CPI of All Threads
system.cpu.decode.BlockedCycles                799072                       # Number of cycles decode is blocked
system.cpu.decode.BranchMispred                  7082                       # Number of times decode detected a branch misprediction
system.cpu.decode.BranchResolved              1342673                       # Number of times decode resolved a branch
system.cpu.decode.DecodedInsts               12503553                       # Number of instructions handled by decode
system.cpu.decode.IdleCycles                  1997809                       # Number of cycles decode is idle
system.cpu.decode.RunCycles                   2470375                       # Number of cycles decode is running
system.cpu.decode.SquashCycles                  39868                       # Number of cycles decode is squashing
system.cpu.decode.SquashedInsts                 24185                       # Number of squashed instructions handled by decode
system.cpu.decode.UnblockCycles                100722                       # Number of cycles decode is unblocking
system.cpu.dtb.accesses                             0                       # DTB accesses
system.cpu.dtb.align_faults                         0                       # Number of TLB faults due to alignment restrictions
system.cpu.dtb.domain_faults                        0                       # Number of TLB faults due to domain restrictions
system.cpu.dtb.flush_entries                        0                       # Number of entries that have been flushed from TLB
system.cpu.dtb.flush_tlb                            0                       # Number of times complete TLB was flushed
system.cpu.dtb.flush_tlb_asid                       0                       # Number of times TLB was flushed by ASID
system.cpu.dtb.flush_tlb_mva                        0                       # Number of times TLB was flushed by MVA
system.cpu.dtb.flush_tlb_mva_asid                   0                       # Number of times TLB was flushed by MVA & ASID
system.cpu.dtb.hits                                 0                       # DTB hits
system.cpu.dtb.inst_accesses                        0                       # ITB inst accesses
system.cpu.dtb.inst_hits                            0                       # ITB inst hits
system.cpu.dtb.inst_misses                          0                       # ITB inst misses
system.cpu.dtb.misses                               0                       # DTB misses
system.cpu.dtb.perms_faults                         0                       # Number of TLB faults due to permissions restrictions
system.cpu.dtb.prefetch_faults                      0                       # Number of TLB faults due to prefetch
system.cpu.dtb.read_accesses                        0                       # DTB read accesses
system.cpu.dtb.read_hits                            0                       # DTB read hits
system.cpu.dtb.read_misses                          0                       # DTB read misses
system.cpu.dtb.stage2_mmu.stage2_tlb.accesses            0                       # DTB accesses
system.cpu.dtb.stage2_mmu.stage2_tlb.align_faults            0                       # Number of TLB faults due to alignment restrictions
system.cpu.dtb.stage2_mmu.stage2_tlb.domain_faults            0                       # Number of TLB faults due to domain restrictions
system.cpu.dtb.stage2_mmu.stage2_tlb.flush_entries            0                       # Number of entries that have been flushed from TLB
system.cpu.dtb.stage2_mmu.stage2_tlb.flush_tlb            0                       # Number of times complete TLB was flushed
system.cpu.dtb.stage2_mmu.stage2_tlb.flush_tlb_asid            0                       # Number of times TLB was flushed by ASID
system.cpu.dtb.stage2_mmu.stage2_tlb.flush_tlb_mva            0                       # Number of times TLB was flushed by MVA
system.cpu.dtb.stage2_mmu.stage2_tlb.flush_tlb_mva_asid            0                       # Number of times TLB was flushed by MVA & ASID
system.cpu.dtb.stage2_mmu.stage2_tlb.hits            0                       # DTB hits
system.cpu.dtb.stage2_mmu.stage2_tlb.inst_accesses            0                       # ITB inst accesses
system.cpu.dtb.stage2_mmu.stage2_tlb.inst_hits            0                       # ITB inst hits
system.cpu.dtb.stage2_mmu.stage2_tlb.inst_misses            0                       # ITB inst misses
system.cpu.dtb.stage2_mmu.stage2_tlb.misses            0                       # DTB misses
system.cpu.dtb.stage2_mmu.stage2_tlb.perms_faults            0                       # Number of TLB faults due to permissions restrictions
system.cpu.dtb.stage2_mmu.stage2_tlb.prefetch_faults            0                       # Number of TLB faults due to prefetch
system.cpu.dtb.stage2_mmu.stage2_tlb.read_accesses            0                       # DTB read accesses
system.cpu.dtb.stage2_mmu.stage2_tlb.read_hits            0                       # DTB read hits
system.cpu.dtb.stage2_mmu.stage2_tlb.read_misses            0                       # DTB read misses
system.cpu.dtb.stage2_mmu.stage2_tlb.walker.walkRequestOrigin_Requested::Data            0                       # Table walker requests started/completed, data/inst
system.cpu.dtb.stage2_mmu.stage2_tlb.walker.walkRequestOrigin_Requested::Inst            0                       # Table walker requests started/completed, data/inst
system.cpu.dtb.stage2_mmu.stage2_tlb.walker.walkRequestOrigin_Requested::total            0                       # Table walker requests started/completed, data/inst
system.cpu.dtb.stage2_mmu.stage2_tlb.walker.walkRequestOrigin_Completed::Data            0                       # Table walker requests started/completed, data/inst
system.cpu.dtb.stage2_mmu.stage2_tlb.walker.walkRequestOrigin_Completed::Inst            0                       # Table walker requests started/completed, data/inst
system.cpu.dtb.stage2_mmu.stage2_tlb.walker.walkRequestOrigin_Completed::total            0                       # Table walker requests started/completed, data/inst
system.cpu.dtb.stage2_mmu.stage2_tlb.walker.walkRequestOrigin::total            0                       # Table walker requests started/completed, data/inst
system.cpu.dtb.stage2_mmu.stage2_tlb.walker.walks            0                       # Table walker walks requested
system.cpu.dtb.stage2_mmu.stage2_tlb.write_accesses            0                       # DTB write accesses
system.cpu.dtb.stage2_mmu.stage2_tlb.write_hits            0                       # DTB write hits
system.cpu.dtb.stage2_mmu.stage2_tlb.write_misses            0                       # DTB write misses
system.cpu.dtb.walker.walkRequestOrigin_Requested::Data            0                       # Table walker requests started/completed, data/inst
system.cpu.dtb.walker.walkRequestOrigin_Requested::Inst            0                       # Table walker requests started/completed, data/inst
system.cpu.dtb.walker.walkRequestOrigin_Requested::total            0                       # Table walker requests started/completed, data/inst
system.cpu.dtb.walker.walkRequestOrigin_Completed::Data            0                       # Table walker requests started/completed, data/inst
system.cpu.dtb.walker.walkRequestOrigin_Completed::Inst            0                       # Table walker requests started/completed, data/inst
system.cpu.dtb.walker.walkRequestOrigin_Completed::total            0                       # Table walker requests started/completed, data/inst
system.cpu.dtb.walker.walkRequestOrigin::total            0                       # Table walker requests started/completed, data/inst
system.cpu.dtb.walker.walks                         0                       # Table walker walks requested
system.cpu.dtb.write_accesses                       0                       # DTB write accesses
system.cpu.dtb.write_hits                           0                       # DTB write hits
system.cpu.dtb.write_misses                         0                       # DTB write misses
system.cpu.fetch.Branches                     2870358                       # Number of branches that fetch encountered
system.cpu.fetch.CacheLines                   1747771                       # Number of cache lines fetched
system.cpu.fetch.Cycles                       3233350                       # Number of cycles fetch has run and was not squashing or blocked
system.cpu.fetch.IcacheSquashes                 17482                       # Number of outstanding Icache misses that were squashed
system.cpu.fetch.IcacheWaitRetryStallCycles          198                       # Number of stall cycles due to full MSHR
system.cpu.fetch.Insts                       11329033                       # Number of instructions fetch has processed
system.cpu.fetch.MiscStallCycles                   64                       # Number of cycles fetch has spent waiting on interrupts, or bad addresses, or out of MSHRs
system.cpu.fetch.SquashCycles                   93690                       # Number of cycles fetch has spent squashing
system.cpu.fetch.branchRate                  0.510747                       # Number of branch fetches per cycle
system.cpu.fetch.icacheStallCycles            2127389                       # Number of cycles fetch is stalled on an Icache miss
system.cpu.fetch.predictedBranches            1533972                       # Number of branches that fetch has predicted taken
system.cpu.fetch.rate                        2.015871                       # Number of inst fetches per cycle
system.cpu.fetch.rateDist::samples            5407846                       # Number of instructions fetched each cycle (Total)
system.cpu.fetch.rateDist::mean              2.368199                       # Number of instructions fetched each cycle (Total)
system.cpu.fetch.rateDist::stdev             2.890909                       # Number of instructions fetched each cycle (Total)
system.cpu.fetch.rateDist::underflows               0      0.00%      0.00% # Number of instructions fetched each cycle (Total)
system.cpu.fetch.rateDist::0                  2682595     49.61%     49.61% # Number of instructions fetched each cycle (Total)
system.cpu.fetch.rateDist::1                   168219      3.11%     52.72% # Number of instructions fetched each cycle (Total)
system.cpu.fetch.rateDist::2                   598166     11.06%     63.78% # Number of instructions fetched each cycle (Total)
system.cpu.fetch.rateDist::3                   168835      3.12%     66.90% # Number of instructions fetched each cycle (Total)
system.cpu.fetch.rateDist::4                   499887      9.24%     76.14% # Number of instructions fetched each cycle (Total)
system.cpu.fetch.rateDist::5                   158099      2.92%     79.07% # Number of instructions fetched each cycle (Total)
system.cpu.fetch.rateDist::6                   350777      6.49%     85.55% # Number of instructions fetched each cycle (Total)
system.cpu.fetch.rateDist::7                   209049      3.87%     89.42% # Number of instructions fetched each cycle (Total)
system.cpu.fetch.rateDist::8                   572219     10.58%    100.00% # Number of instructions fetched each cycle (Total)
system.cpu.fetch.rateDist::overflows                0      0.00%    100.00% # Number of instructions fetched each cycle (Total)
system.cpu.fetch.rateDist::min_value                0                       # Number of instructions fetched each cycle (Total)
system.cpu.fetch.rateDist::max_value                8                       # Number of instructions fetched each cycle (Total)
system.cpu.fetch.rateDist::total              5407846                       # Number of instructions fetched each cycle (Total)
system.cpu.icache.prefetcher.num_hwpf_issued        47853                       # number of hwpf issued
system.cpu.icache.prefetcher.pfBufferHit          488                       # number of redundant prefetches already in prefetch queue
system.cpu.icache.prefetcher.pfIdentified        49133                       # number of prefetch candidates identified
system.cpu.icache.prefetcher.pfInCache              0                       # number of redundant prefetches already in cache/mshr dropped
system.cpu.icache.prefetcher.pfRemovedFull            0                       # number of prefetches dropped due to prefetch queue size
system.cpu.icache.prefetcher.pfSpanPage         49239                       # number of prefetches that crossed the page
system.cpu.idleCycles                          212073                       # Total number of cycles that the CPU has spent unscheduled due to idling
system.cpu.iew.branchMispredicts                49777                       # Number of branch mispredicts detected at execute
system.cpu.iew.exec_branches                  2578003                       # Number of branches executed
system.cpu.iew.exec_nop                         13286                       # number of nop insts executed
system.cpu.iew.exec_rate                     2.096573                       # Inst execution rate
system.cpu.iew.exec_refs                      3076287                       # number of memory reference insts executed
system.cpu.iew.exec_stores                    1220499                       # Number of stores executed
system.cpu.iew.exec_swp                             0                       # number of swp insts executed
system.cpu.iew.iewBlockCycles                  116538                       # Number of cycles IEW is blocking
system.cpu.iew.iewDispLoadInsts               1869555                       # Number of dispatched load instructions
system.cpu.iew.iewDispNonSpecInsts               5903                       # Number of dispatched non-speculative instructions
system.cpu.iew.iewDispSquashedInsts             24821                       # Number of squashed instructions skipped by dispatch
system.cpu.iew.iewDispStoreInsts              1246878                       # Number of dispatched store instructions
system.cpu.iew.iewDispatchedInsts            12121603                       # Number of instructions dispatched to IQ
system.cpu.iew.iewExecLoadInsts               1855788                       # Number of load instructions executed
system.cpu.iew.iewExecSquashedInsts             63833                       # Number of squashed instructions skipped in execute
system.cpu.iew.iewExecutedInsts              11782570                       # Number of executed instructions
system.cpu.iew.iewIQFullEvents                    443                       # Number of times the IQ has become full, causing a stall
system.cpu.iew.iewIdleCycles                        0                       # Number of cycles IEW is idle
system.cpu.iew.iewLSQFullEvents                  8189                       # Number of times the LSQ has become full, causing a stall
system.cpu.iew.iewSquashCycles                  39868                       # Number of cycles IEW is squashing
system.cpu.iew.iewUnblockCycles                  8885                       # Number of cycles IEW is unblocking
system.cpu.iew.lsq.thread0.blockedLoads             0                       # Number of blocked loads due to partial load-store forwarding
system.cpu.iew.lsq.thread0.cacheBlocked           352                       # Number of times an access to memory failed due to the cache being blocked
system.cpu.iew.lsq.thread0.forwLoads            21852                       # Number of loads that had data forwarded from stores
system.cpu.iew.lsq.thread0.ignoredResponses           27                       # Number of memory responses ignored because the instruction is squashed
system.cpu.iew.lsq.thread0.invAddrLoads             0                       # Number of loads ignored due to an invalid address
system.cpu.iew.lsq.thread0.invAddrSwpfs             0                       # Number of software prefetches ignored due to an invalid address
system.cpu.iew.lsq.thread0.memOrderViolation          252                       # Number of memory ordering violations
system.cpu.iew.lsq.thread0.rescheduledLoads        35652                       # Number of loads that were rescheduled
system.cpu.iew.lsq.thread0.squashedLoads       128233                       # Number of loads squashed
system.cpu.iew.lsq.thread0.squashedStores        49255                       # Number of stores squashed
system.cpu.iew.memOrderViolationEvents            252                       # Number of memory order violations
system.cpu.iew.predictedNotTakenIncorrect        32182                       # Number of branches that were predicted not taken incorrectly
system.cpu.iew.predictedTakenIncorrect          17595                       # Number of branches that were predicted taken incorrectly
system.cpu.iew.wb_consumers                  12339321                       # num instructions consuming a value
system.cpu.iew.wb_count                      11698457                       # cumulative count of insts written-back
system.cpu.iew.wb_fanout                     0.492895                       # average fanout of values written-back
system.cpu.iew.wb_producers                   6081986                       # num instructions producing a value
system.cpu.iew.wb_rate                       2.081606                       # insts written-back per cycle
system.cpu.iew.wb_sent                       11715408                       # cumulative count of insts sent to commit
system.cpu.int_regfile_reads                 13388723                       # number of integer regfile reads
system.cpu.int_regfile_writes                 7889153                       # number of integer regfile writes
system.cpu.ipc                               1.779385                       # IPC: Instructions Per Cycle
system.cpu.ipc_total                         1.779385                       # IPC: Total IPC of All Threads
system.cpu.iq.FU_type_0::No_OpClass                 5      0.00%      0.00% # Type of FU issued
system.cpu.iq.FU_type_0::IntAlu               8499810     71.75%     71.75% # Type of FU issued
system.cpu.iq.FU_type_0::IntMult                28187      0.24%     71.99% # Type of FU issued
system.cpu.iq.FU_type_0::IntDiv                  1098      0.01%     72.00% # Type of FU issued
system.cpu.iq.FU_type_0::FloatAdd               86265      0.73%     72.73% # Type of FU issued
system.cpu.iq.FU_type_0::FloatCmp                6026      0.05%     72.78% # Type of FU issued
system.cpu.iq.FU_type_0::FloatCvt                 515      0.00%     72.78% # Type of FU issued
system.cpu.iq.FU_type_0::FloatMult                741      0.01%     72.79% # Type of FU issued
system.cpu.iq.FU_type_0::FloatMultAcc           83064      0.70%     73.49% # Type of FU issued
system.cpu.iq.FU_type_0::FloatDiv                  64      0.00%     73.49% # Type of FU issued
system.cpu.iq.FU_type_0::FloatMisc               5939      0.05%     73.54% # Type of FU issued
system.cpu.iq.FU_type_0::FloatSqrt               4221      0.04%     73.57% # Type of FU issued
system.cpu.iq.FU_type_0::SimdAdd                   24      0.00%     73.57% # Type of FU issued
system.cpu.iq.FU_type_0::SimdAddAcc                 0      0.00%     73.57% # Type of FU issued
system.cpu.iq.FU_type_0::SimdAlu                   24      0.00%     73.57% # Type of FU issued
system.cpu.iq.FU_type_0::SimdCmp                   20      0.00%     73.58% # Type of FU issued
system.cpu.iq.FU_type_0::SimdCvt                   12      0.00%     73.58% # Type of FU issued
system.cpu.iq.FU_type_0::SimdMisc               28469      0.24%     73.82% # Type of FU issued
system.cpu.iq.FU_type_0::SimdMult                   0      0.00%     73.82% # Type of FU issued
system.cpu.iq.FU_type_0::SimdMultAcc                0      0.00%     73.82% # Type of FU issued
system.cpu.iq.FU_type_0::SimdShift                  0      0.00%     73.82% # Type of FU issued
system.cpu.iq.FU_type_0::SimdShiftAcc               0      0.00%     73.82% # Type of FU issued
system.cpu.iq.FU_type_0::SimdDiv                    0      0.00%     73.82% # Type of FU issued
system.cpu.iq.FU_type_0::SimdSqrt                   0      0.00%     73.82% # Type of FU issued
system.cpu.iq.FU_type_0::SimdFloatAdd               0      0.00%     73.82% # Type of FU issued
system.cpu.iq.FU_type_0::SimdFloatAlu               0      0.00%     73.82% # Type of FU issued
system.cpu.iq.FU_type_0::SimdFloatCmp               0      0.00%     73.82% # Type of FU issued
system.cpu.iq.FU_type_0::SimdFloatCvt               0      0.00%     73.82% # Type of FU issued
system.cpu.iq.FU_type_0::SimdFloatDiv               0      0.00%     73.82% # Type of FU issued
system.cpu.iq.FU_type_0::SimdFloatMisc              0      0.00%     73.82% # Type of FU issued
system.cpu.iq.FU_type_0::SimdFloatMult              0      0.00%     73.82% # Type of FU issued
system.cpu.iq.FU_type_0::SimdFloatMultAcc            0      0.00%     73.82% # Type of FU issued
system.cpu.iq.FU_type_0::SimdFloatSqrt              0      0.00%     73.82% # Type of FU issued
system.cpu.iq.FU_type_0::SimdReduceAdd              0      0.00%     73.82% # Type of FU issued
system.cpu.iq.FU_type_0::SimdReduceAlu              0      0.00%     73.82% # Type of FU issued
system.cpu.iq.FU_type_0::SimdReduceCmp              0      0.00%     73.82% # Type of FU issued
system.cpu.iq.FU_type_0::SimdFloatReduceAdd            0      0.00%     73.82% # Type of FU issued
system.cpu.iq.FU_type_0::SimdFloatReduceCmp            0      0.00%     73.82% # Type of FU issued
system.cpu.iq.FU_type_0::SimdAes                    0      0.00%     73.82% # Type of FU issued
system.cpu.iq.FU_type_0::SimdAesMix                 0      0.00%     73.82% # Type of FU issued
system.cpu.iq.FU_type_0::SimdSha1Hash               0      0.00%     73.82% # Type of FU issued
system.cpu.iq.FU_type_0::SimdSha1Hash2              0      0.00%     73.82% # Type of FU issued
system.cpu.iq.FU_type_0::SimdSha256Hash             0      0.00%     73.82% # Type of FU issued
system.cpu.iq.FU_type_0::SimdSha256Hash2            0      0.00%     73.82% # Type of FU issued
system.cpu.iq.FU_type_0::SimdShaSigma2              0      0.00%     73.82% # Type of FU issued
system.cpu.iq.FU_type_0::SimdShaSigma3              0      0.00%     73.82% # Type of FU issued
system.cpu.iq.FU_type_0::SimdPredAlu                0      0.00%     73.82% # Type of FU issued
system.cpu.iq.FU_type_0::MemRead              1875915     15.84%     89.65% # Type of FU issued
system.cpu.iq.FU_type_0::MemWrite             1226009     10.35%    100.00% # Type of FU issued
system.cpu.iq.FU_type_0::FloatMemRead               0      0.00%    100.00% # Type of FU issued
system.cpu.iq.FU_type_0::FloatMemWrite              0      0.00%    100.00% # Type of FU issued
system.cpu.iq.FU_type_0::IprAccess                  0      0.00%    100.00% # Type of FU issued
system.cpu.iq.FU_type_0::InstPrefetch               0      0.00%    100.00% # Type of FU issued
system.cpu.iq.FU_type_0::total               11846408                       # Type of FU issued
system.cpu.iq.fp_alu_accesses                       0                       # Number of floating point alu accesses
system.cpu.iq.fp_inst_queue_reads                   0                       # Number of floating instruction queue reads
system.cpu.iq.fp_inst_queue_wakeup_accesses            0                       # Number of floating instruction queue wakeup accesses
system.cpu.iq.fp_inst_queue_writes                  0                       # Number of floating instruction queue writes
system.cpu.iq.fu_busy_cnt                      172770                       # FU busy when requested
system.cpu.iq.fu_busy_rate                   0.014584                       # FU busy rate (busy events/executed inst)
system.cpu.iq.fu_full::No_OpClass                   0      0.00%      0.00% # attempts to use FU when none available
system.cpu.iq.fu_full::IntAlu                   37329     21.61%     21.61% # attempts to use FU when none available
system.cpu.iq.fu_full::IntMult                     59      0.03%     21.64% # attempts to use FU when none available
system.cpu.iq.fu_full::IntDiv                       0      0.00%     21.64% # attempts to use FU when none available
system.cpu.iq.fu_full::FloatAdd                     0      0.00%     21.64% # attempts to use FU when none available
system.cpu.iq.fu_full::FloatCmp                     0      0.00%     21.64% # attempts to use FU when none available
system.cpu.iq.fu_full::FloatCvt                     0      0.00%     21.64% # attempts to use FU when none available
system.cpu.iq.fu_full::FloatMult                  133      0.08%     21.72% # attempts to use FU when none available
system.cpu.iq.fu_full::FloatMultAcc               107      0.06%     21.78% # attempts to use FU when none available
system.cpu.iq.fu_full::FloatDiv                   237      0.14%     21.92% # attempts to use FU when none available
system.cpu.iq.fu_full::FloatMisc                   37      0.02%     21.94% # attempts to use FU when none available
system.cpu.iq.fu_full::FloatSqrt                   31      0.02%     21.96% # attempts to use FU when none available
system.cpu.iq.fu_full::SimdAdd                      0      0.00%     21.96% # attempts to use FU when none available
system.cpu.iq.fu_full::SimdAddAcc                   0      0.00%     21.96% # attempts to use FU when none available
system.cpu.iq.fu_full::SimdAlu                      1      0.00%     21.96% # attempts to use FU when none available
system.cpu.iq.fu_full::SimdCmp                      2      0.00%     21.96% # attempts to use FU when none available
system.cpu.iq.fu_full::SimdCvt                      0      0.00%     21.96% # attempts to use FU when none available
system.cpu.iq.fu_full::SimdMisc                     0      0.00%     21.96% # attempts to use FU when none available
system.cpu.iq.fu_full::SimdMult                     0      0.00%     21.96% # attempts to use FU when none available
system.cpu.iq.fu_full::SimdMultAcc                  0      0.00%     21.96% # attempts to use FU when none available
system.cpu.iq.fu_full::SimdShift                    0      0.00%     21.96% # attempts to use FU when none available
system.cpu.iq.fu_full::SimdShiftAcc                 0      0.00%     21.96% # attempts to use FU when none available
system.cpu.iq.fu_full::SimdDiv                      0      0.00%     21.96% # attempts to use FU when none available
system.cpu.iq.fu_full::SimdSqrt                     0      0.00%     21.96% # attempts to use FU when none available
system.cpu.iq.fu_full::SimdFloatAdd                 0      0.00%     21.96% # attempts to use FU when none available
system.cpu.iq.fu_full::SimdFloatAlu                 0      0.00%     21.96% # attempts to use FU when none available
system.cpu.iq.fu_full::SimdFloatCmp                 0      0.00%     21.96% # attempts to use FU when none available
system.cpu.iq.fu_full::SimdFloatCvt                 0      0.00%     21.96% # attempts to use FU when none available
system.cpu.iq.fu_full::SimdFloatDiv                 0      0.00%     21.96% # attempts to use FU when none available
system.cpu.iq.fu_full::SimdFloatMisc                0      0.00%     21.96% # attempts to use FU when none available
system.cpu.iq.fu_full::SimdFloatMult                0      0.00%     21.96% # attempts to use FU when none available
system.cpu.iq.fu_full::SimdFloatMultAcc             0      0.00%     21.96% # attempts to use FU when none available
system.cpu.iq.fu_full::SimdFloatSqrt                0      0.00%     21.96% # attempts to use FU when none available
system.cpu.iq.fu_full::SimdReduceAdd                0      0.00%     21.96% # attempts to use FU when none available
system.cpu.iq.fu_full::SimdReduceAlu                0      0.00%     21.96% # attempts to use FU when none available
system.cpu.iq.fu_full::SimdReduceCmp                0      0.00%     21.96% # attempts to use FU when none available
system.cpu.iq.fu_full::SimdFloatReduceAdd            0      0.00%     21.96% # attempts to use FU when none available
system.cpu.iq.fu_full::SimdFloatReduceCmp            0      0.00%     21.96% # attempts to use FU when none available
system.cpu.iq.fu_full::SimdAes                      0      0.00%     21.96% # attempts to use FU when none available
system.cpu.iq.fu_full::SimdAesMix                   0      0.00%     21.96% # attempts to use FU when none available
system.cpu.iq.fu_full::SimdSha1Hash                 0      0.00%     21.96% # attempts to use FU when none available
system.cpu.iq.fu_full::SimdSha1Hash2                0      0.00%     21.96% # attempts to use FU when none available
system.cpu.iq.fu_full::SimdSha256Hash               0      0.00%     21.96% # attempts to use FU when none available
system.cpu.iq.fu_full::SimdSha256Hash2              0      0.00%     21.96% # attempts to use FU when none available
system.cpu.iq.fu_full::SimdShaSigma2                0      0.00%     21.96% # attempts to use FU when none available
system.cpu.iq.fu_full::SimdShaSigma3                0      0.00%     21.96% # attempts to use FU when none available
system.cpu.iq.fu_full::SimdPredAlu                  0      0.00%     21.96% # attempts to use FU when none available
system.cpu.iq.fu_full::MemRead                  48477     28.06%     50.02% # attempts to use FU when none available
system.cpu.iq.fu_full::MemWrite                 86357     49.98%    100.00% # attempts to use FU when none available
system.cpu.iq.fu_full::FloatMemRead                 0      0.00%    100.00% # attempts to use FU when none available
system.cpu.iq.fu_full::FloatMemWrite                0      0.00%    100.00% # attempts to use FU when none available
system.cpu.iq.fu_full::IprAccess                    0      0.00%    100.00% # attempts to use FU when none available
system.cpu.iq.fu_full::InstPrefetch                 0      0.00%    100.00% # attempts to use FU when none available
system.cpu.iq.int_alu_accesses               11410407                       # Number of integer alu accesses
system.cpu.iq.int_inst_queue_reads           28082332                       # Number of integer instruction queue reads
system.cpu.iq.int_inst_queue_wakeup_accesses     11115058                       # Number of integer instruction queue wakeup accesses
system.cpu.iq.int_inst_queue_writes          12246503                       # Number of integer instruction queue writes
system.cpu.iq.iqInstsAdded                   12102414                       # Number of instructions added to the IQ (excludes non-spec)
system.cpu.iq.iqInstsIssued                  11846408                       # Number of instructions issued
system.cpu.iq.iqNonSpecInstsAdded                5903                       # Number of non-speculative instructions added to the IQ
system.cpu.iq.iqSquashedInstsExamined          735009                       # Number of squashed instructions iterated over during squash; mainly for profiling
system.cpu.iq.iqSquashedInstsIssued              3126                       # Number of squashed instructions issued
system.cpu.iq.iqSquashedNonSpecRemoved            609                       # Number of squashed non-spec instructions that were removed
system.cpu.iq.iqSquashedOperandsExamined       742100                       # Number of squashed operands that are examined and possibly removed from graph
system.cpu.iq.issued_per_cycle::samples       5407846                       # Number of insts issued each cycle
system.cpu.iq.issued_per_cycle::mean         2.190596                       # Number of insts issued each cycle
system.cpu.iq.issued_per_cycle::stdev        2.214929                       # Number of insts issued each cycle
system.cpu.iq.issued_per_cycle::underflows            0      0.00%      0.00% # Number of insts issued each cycle
system.cpu.iq.issued_per_cycle::0             1668344     30.85%     30.85% # Number of insts issued each cycle
system.cpu.iq.issued_per_cycle::1             1049678     19.41%     50.26% # Number of insts issued each cycle
system.cpu.iq.issued_per_cycle::2              671186     12.41%     62.67% # Number of insts issued each cycle
system.cpu.iq.issued_per_cycle::3              584677     10.81%     73.48% # Number of insts issued each cycle
system.cpu.iq.issued_per_cycle::4              484309      8.96%     82.44% # Number of insts issued each cycle
system.cpu.iq.issued_per_cycle::5              264236      4.89%     87.33% # Number of insts issued each cycle
system.cpu.iq.issued_per_cycle::6              442189      8.18%     95.50% # Number of insts issued each cycle
system.cpu.iq.issued_per_cycle::7              157039      2.90%     98.41% # Number of insts issued each cycle
system.cpu.iq.issued_per_cycle::8               86188      1.59%    100.00% # Number of insts issued each cycle
system.cpu.iq.issued_per_cycle::overflows            0      0.00%    100.00% # Number of insts issued each cycle
system.cpu.iq.issued_per_cycle::min_value            0                       # Number of insts issued each cycle
system.cpu.iq.issued_per_cycle::max_value            8                       # Number of insts issued each cycle
system.cpu.iq.issued_per_cycle::total         5407846                       # Number of insts issued each cycle
system.cpu.iq.rate                           2.107932                       # Inst issue rate
system.cpu.iq.vec_alu_accesses                 608766                       # Number of vector alu accesses
system.cpu.iq.vec_inst_queue_reads            1194221                       # Number of vector instruction queue reads
system.cpu.iq.vec_inst_queue_wakeup_accesses       583399                       # Number of vector instruction queue wakeup accesses
system.cpu.iq.vec_inst_queue_writes            597071                       # Number of vector instruction queue writes
system.cpu.itb.accesses                             0                       # DTB accesses
system.cpu.itb.align_faults                         0                       # Number of TLB faults due to alignment restrictions
system.cpu.itb.domain_faults                        0                       # Number of TLB faults due to domain restrictions
system.cpu.itb.flush_entries                        0                       # Number of entries that have been flushed from TLB
system.cpu.itb.flush_tlb                            0                       # Number of times complete TLB was flushed
system.cpu.itb.flush_tlb_asid                       0                       # Number of times TLB was flushed by ASID
system.cpu.itb.flush_tlb_mva                        0                       # Number of times TLB was flushed by MVA
system.cpu.itb.flush_tlb_mva_asid                   0                       # Number of times TLB was flushed by MVA & ASID
system.cpu.itb.hits                                 0                       # DTB hits
system.cpu.itb.inst_accesses                        0                       # ITB inst accesses
system.cpu.itb.inst_hits                            0                       # ITB inst hits
system.cpu.itb.inst_misses                          0                       # ITB inst misses
system.cpu.itb.misses                               0                       # DTB misses
system.cpu.itb.perms_faults                         0                       # Number of TLB faults due to permissions restrictions
system.cpu.itb.prefetch_faults                      0                       # Number of TLB faults due to prefetch
system.cpu.itb.read_accesses                        0                       # DTB read accesses
system.cpu.itb.read_hits                            0                       # DTB read hits
system.cpu.itb.read_misses                          0                       # DTB read misses
system.cpu.itb.stage2_mmu.stage2_tlb.accesses            0                       # DTB accesses
system.cpu.itb.stage2_mmu.stage2_tlb.align_faults            0                       # Number of TLB faults due to alignment restrictions
system.cpu.itb.stage2_mmu.stage2_tlb.domain_faults            0                       # Number of TLB faults due to domain restrictions
system.cpu.itb.stage2_mmu.stage2_tlb.flush_entries            0                       # Number of entries that have been flushed from TLB
system.cpu.itb.stage2_mmu.stage2_tlb.flush_tlb            0                       # Number of times complete TLB was flushed
system.cpu.itb.stage2_mmu.stage2_tlb.flush_tlb_asid            0                       # Number of times TLB was flushed by ASID
system.cpu.itb.stage2_mmu.stage2_tlb.flush_tlb_mva            0                       # Number of times TLB was flushed by MVA
system.cpu.itb.stage2_mmu.stage2_tlb.flush_tlb_mva_asid            0                       # Number of times TLB was flushed by MVA & ASID
system.cpu.itb.stage2_mmu.stage2_tlb.hits            0                       # DTB hits
system.cpu.itb.stage2_mmu.stage2_tlb.inst_accesses            0                       # ITB inst accesses
system.cpu.itb.stage2_mmu.stage2_tlb.inst_hits            0                       # ITB inst hits
system.cpu.itb.stage2_mmu.stage2_tlb.inst_misses            0                       # ITB inst misses
system.cpu.itb.stage2_mmu.stage2_tlb.misses            0                       # DTB misses
system.cpu.itb.stage2_mmu.stage2_tlb.perms_faults            0                       # Number of TLB faults due to permissions restrictions
system.cpu.itb.stage2_mmu.stage2_tlb.prefetch_faults            0                       # Number of TLB faults due to prefetch
system.cpu.itb.stage2_mmu.stage2_tlb.read_accesses            0                       # DTB read accesses
system.cpu.itb.stage2_mmu.stage2_tlb.read_hits            0                       # DTB read hits
system.cpu.itb.stage2_mmu.stage2_tlb.read_misses            0                       # DTB read misses
system.cpu.itb.stage2_mmu.stage2_tlb.walker.walkRequestOrigin_Requested::Data            0                       # Table walker requests started/completed, data/inst
system.cpu.itb.stage2_mmu.stage2_tlb.walker.walkRequestOrigin_Requested::Inst            0                       # Table walker requests started/completed, data/inst
system.cpu.itb.stage2_mmu.stage2_tlb.walker.walkRequestOrigin_Requested::total            0                       # Table walker requests started/completed, data/inst
system.cpu.itb.stage2_mmu.stage2_tlb.walker.walkRequestOrigin_Completed::Data            0                       # Table walker requests started/completed, data/inst
system.cpu.itb.stage2_mmu.stage2_tlb.walker.walkRequestOrigin_Completed::Inst            0                       # Table walker requests started/completed, data/inst
system.cpu.itb.stage2_mmu.stage2_tlb.walker.walkRequestOrigin_Completed::total            0                       # Table walker requests started/completed, data/inst
system.cpu.itb.stage2_mmu.stage2_tlb.walker.walkRequestOrigin::total            0                       # Table walker requests started/completed, data/inst
system.cpu.itb.stage2_mmu.stage2_tlb.walker.walks            0                       # Table walker walks requested
system.cpu.itb.stage2_mmu.stage2_tlb.write_accesses            0                       # DTB write accesses
system.cpu.itb.stage2_mmu.stage2_tlb.write_hits            0                       # DTB write hits
system.cpu.itb.stage2_mmu.stage2_tlb.write_misses            0                       # DTB write misses
system.cpu.itb.walker.walkRequestOrigin_Requested::Data            0                       # Table walker requests started/completed, data/inst
system.cpu.itb.walker.walkRequestOrigin_Requested::Inst            0                       # Table walker requests started/completed, data/inst
system.cpu.itb.walker.walkRequestOrigin_Requested::total            0                       # Table walker requests started/completed, data/inst
system.cpu.itb.walker.walkRequestOrigin_Completed::Data            0                       # Table walker requests started/completed, data/inst
system.cpu.itb.walker.walkRequestOrigin_Completed::Inst            0                       # Table walker requests started/completed, data/inst
system.cpu.itb.walker.walkRequestOrigin_Completed::total            0                       # Table walker requests started/completed, data/inst
system.cpu.itb.walker.walkRequestOrigin::total            0                       # Table walker requests started/completed, data/inst
system.cpu.itb.walker.walks                         0                       # Table walker walks requested
system.cpu.itb.write_accesses                       0                       # DTB write accesses
system.cpu.itb.write_hits                           0                       # DTB write hits
system.cpu.itb.write_misses                         0                       # DTB write misses
system.cpu.memDep0.conflictingLoads             33204                       # Number of conflicting loads.
system.cpu.memDep0.conflictingStores            65152                       # Number of conflicting stores.
system.cpu.memDep0.insertedLoads              1869555                       # Number of loads inserted to the mem dependence unit.
system.cpu.memDep0.insertedStores             1246878                       # Number of stores inserted to the mem dependence unit.
system.cpu.misc_regfile_reads                 9146170                       # number of misc regfile reads
system.cpu.misc_regfile_writes                 202510                       # number of misc regfile writes
system.cpu.numCycles                          5619919                       # number of cpu cycles simulated
system.cpu.numWorkItemsCompleted                    0                       # number of work items this cpu completed
system.cpu.numWorkItemsStarted                      0                       # number of work items this cpu started
system.cpu.rename.BlockCycles                  132442                       # Number of cycles rename is blocking
system.cpu.rename.CommittedMaps              14124428                       # Number of HB maps that are committed
system.cpu.rename.IQFullEvents                  44032                       # Number of times rename has blocked due to IQ full
system.cpu.rename.IdleCycles                  2063975                       # Number of cycles rename is idle
system.cpu.rename.LQFullEvents                  87396                       # Number of times rename has blocked due to LQ full
system.cpu.rename.ROBFullEvents                   171                       # Number of times rename has blocked due to ROB full
system.cpu.rename.RenameLookups              22578672                       # Number of register rename lookups that rename has made
system.cpu.rename.RenamedInsts               12356215                       # Number of instructions processed by rename
system.cpu.rename.RenamedOperands            15342837                       # Number of destination operands rename has renamed
system.cpu.rename.RunCycles                   2499894                       # Number of cycles rename is running
system.cpu.rename.SQFullEvents                 156683                       # Number of times rename has blocked due to SQ full
system.cpu.rename.SquashCycles                  39868                       # Number of cycles rename is squashing
system.cpu.rename.UnblockCycles                330071                       # Number of cycles rename is unblocking
system.cpu.rename.UndoneMaps                  1218382                       # Number of HB maps that are undone due to squashing
system.cpu.rename.int_rename_lookups         14034866                       # Number of integer rename lookups
system.cpu.rename.serializeStallCycles         341596                       # count of cycles rename stalled for serializing inst
system.cpu.rename.serializingInsts              24354                       # count of serializing insts renamed
system.cpu.rename.skidInsts                    487322                       # count of insts added to the skid buffer
system.cpu.rename.tempSerializingInsts           5910                       # count of temporary serializing insts renamed
system.cpu.rename.vec_rename_lookups           634731                       # Number of vector rename lookups
system.cpu.rob.rob_reads                     16923774                       # The number of ROB reads
system.cpu.rob.rob_writes                    24357690                       # The number of ROB writes
system.cpu.timesIdled                           11813                       # Number of times that the entire CPU went into an idle state and unscheduled itself
system.cpu.vec_regfile_reads                   627180                       # number of vector regfile reads
system.cpu.vec_regfile_writes                  390040                       # number of vector regfile writes
system.cpu.workload.numSyscalls                    53                       # Number of system calls
system.membus.snoop_filter.hit_multi_requests            0                       # Number of requests hitting in the snoop filter with multiple (>1) holders of the requested data.
system.membus.snoop_filter.hit_multi_snoops            0                       # Number of snoops hitting in the snoop filter with multiple (>1) holders of the requested data.
system.membus.snoop_filter.hit_single_requests            0                       # Number of requests hitting in the snoop filter with a single holder of the requested data.
system.membus.snoop_filter.hit_single_snoops            0                       # Number of snoops hitting in the snoop filter with a single holder of the requested data.
system.membus.snoop_filter.tot_requests          3747                       # Total number of requests made to the snoop filter.
system.membus.snoop_filter.tot_snoops               0                       # Total number of snoops made to the snoop filter.
system.tol2bus.snoop_filter.hit_multi_requests            9                       # Number of requests hitting in the snoop filter with multiple (>1) holders of the requested data.
system.tol2bus.snoop_filter.hit_multi_snoops            0                       # Number of snoops hitting in the snoop filter with multiple (>1) holders of the requested data.
system.tol2bus.snoop_filter.hit_single_requests        26644                       # Number of requests hitting in the snoop filter with a single holder of the requested data.
system.tol2bus.snoop_filter.hit_single_snoops            0                       # Number of snoops hitting in the snoop filter with a single holder of the requested data.
system.tol2bus.snoop_filter.tot_requests        55223                       # Total number of requests made to the snoop filter.
system.tol2bus.snoop_filter.tot_snoops              0                       # Total number of snoops made to the snoop filter.
system.membus.trans_dist::ReadResp               3064                       # Transaction distribution
system.membus.trans_dist::ReadExReq               534                       # Transaction distribution
system.membus.trans_dist::ReadExResp              534                       # Transaction distribution
system.membus.trans_dist::ReadSharedReq          3064                       # Transaction distribution
system.membus.trans_dist::InvalidateReq           149                       # Transaction distribution
system.membus.pkt_count_system.l2.mem_side::system.mem_ctrls.port         7345                       # Packet count per connected master and slave (bytes)
system.membus.pkt_count::total                   7345                       # Packet count per connected master and slave (bytes)
system.membus.pkt_size_system.l2.mem_side::system.mem_ctrls.port       230272                       # Cumulative packet size per connected master and slave (bytes)
system.membus.pkt_size::total                  230272                       # Cumulative packet size per connected master and slave (bytes)
system.membus.snoops                                0                       # Total snoops (count)
system.membus.snoopTraffic                          0                       # Total snoop traffic (bytes)
system.membus.snoop_fanout::samples              3747                       # Request fanout histogram
system.membus.snoop_fanout::mean                    0                       # Request fanout histogram
system.membus.snoop_fanout::stdev                   0                       # Request fanout histogram
system.membus.snoop_fanout::underflows              0      0.00%      0.00% # Request fanout histogram
system.membus.snoop_fanout::0                    3747    100.00%    100.00% # Request fanout histogram
system.membus.snoop_fanout::1                       0      0.00%    100.00% # Request fanout histogram
system.membus.snoop_fanout::overflows               0      0.00%    100.00% # Request fanout histogram
system.membus.snoop_fanout::min_value               0                       # Request fanout histogram
system.membus.snoop_fanout::max_value               0                       # Request fanout histogram
system.membus.snoop_fanout::total                3747                       # Request fanout histogram
system.membus.reqLayer0.occupancy             4557500                       # Layer occupancy (ticks)
system.membus.reqLayer0.utilization               0.2                       # Layer utilization (%)
system.membus.respLayer1.occupancy           19063000                       # Layer occupancy (ticks)
system.membus.respLayer1.utilization              0.7                       # Layer utilization (%)
system.membus.power_state.pwrStateResidencyTicks::UNDEFINED   2809958500                       # Cumulative time (in ticks) in various power states
system.tol2bus.trans_dist::ReadResp             27834                       # Transaction distribution
system.tol2bus.trans_dist::WritebackDirty          634                       # Transaction distribution
system.tol2bus.trans_dist::WritebackClean        25589                       # Transaction distribution
system.tol2bus.trans_dist::CleanEvict             412                       # Transaction distribution
system.tol2bus.trans_dist::UpgradeReq               6                       # Transaction distribution
system.tol2bus.trans_dist::UpgradeResp              6                       # Transaction distribution
system.tol2bus.trans_dist::ReadExReq              597                       # Transaction distribution
system.tol2bus.trans_dist::ReadExResp             597                       # Transaction distribution
system.tol2bus.trans_dist::ReadCleanReq         26567                       # Transaction distribution
system.tol2bus.trans_dist::ReadSharedReq         1267                       # Transaction distribution
system.tol2bus.trans_dist::InvalidateReq          151                       # Transaction distribution
system.tol2bus.trans_dist::InvalidateResp          151                       # Transaction distribution
system.tol2bus.pkt_count_system.cpu.icache.mem_side::system.l2.cpu_side        78715                       # Packet count per connected master and slave (bytes)
system.tol2bus.pkt_count_system.cpu.dcache.mem_side::system.l2.cpu_side         5088                       # Packet count per connected master and slave (bytes)
system.tol2bus.pkt_count::total                 83803                       # Packet count per connected master and slave (bytes)
system.tol2bus.pkt_size_system.cpu.icache.mem_side::system.l2.cpu_side      3337472                       # Cumulative packet size per connected master and slave (bytes)
system.tol2bus.pkt_size_system.cpu.dcache.mem_side::system.l2.cpu_side       159872                       # Cumulative packet size per connected master and slave (bytes)
system.tol2bus.pkt_size::total                3497344                       # Cumulative packet size per connected master and slave (bytes)
system.tol2bus.snoops                               8                       # Total snoops (count)
system.tol2bus.snoopTraffic                       512                       # Total snoop traffic (bytes)
system.tol2bus.snoop_fanout::samples            28588                       # Request fanout histogram
system.tol2bus.snoop_fanout::mean            0.000630                       # Request fanout histogram
system.tol2bus.snoop_fanout::stdev           0.025085                       # Request fanout histogram
system.tol2bus.snoop_fanout::underflows             0      0.00%      0.00% # Request fanout histogram
system.tol2bus.snoop_fanout::0                  28570     99.94%     99.94% # Request fanout histogram
system.tol2bus.snoop_fanout::1                     18      0.06%    100.00% # Request fanout histogram
system.tol2bus.snoop_fanout::2                      0      0.00%    100.00% # Request fanout histogram
system.tol2bus.snoop_fanout::overflows              0      0.00%    100.00% # Request fanout histogram
system.tol2bus.snoop_fanout::min_value              0                       # Request fanout histogram
system.tol2bus.snoop_fanout::max_value              1                       # Request fanout histogram
system.tol2bus.snoop_fanout::total              28588                       # Request fanout histogram
system.tol2bus.reqLayer0.occupancy           57719980                       # Layer occupancy (ticks)
system.tol2bus.reqLayer0.utilization              2.1                       # Layer utilization (%)
system.tol2bus.respLayer1.occupancy           2875997                       # Layer occupancy (ticks)
system.tol2bus.respLayer1.utilization             0.1                       # Layer utilization (%)
system.tol2bus.respLayer0.occupancy          39850500                       # Layer occupancy (ticks)
system.tol2bus.respLayer0.utilization             1.4                       # Layer utilization (%)
system.tol2bus.power_state.pwrStateResidencyTicks::UNDEFINED   2809958500                       # Cumulative time (in ticks) in various power states
system.voltage_domain.voltage                       1                       # Voltage in Volts
system.clk_domain.clock                          1000                       # Clock period in ticks
system.l2.demand_hits::.cpu.inst                14609                       # number of demand (read+write) hits
system.l2.demand_hits::.cpu.data                  374                       # number of demand (read+write) hits
system.l2.demand_hits::.cpu.icache.prefetcher         9842                       # number of demand (read+write) hits
system.l2.demand_hits::total                    24825                       # number of demand (read+write) hits
system.l2.overall_hits::.cpu.inst               14609                       # number of overall hits
system.l2.overall_hits::.cpu.data                 374                       # number of overall hits
system.l2.overall_hits::.cpu.icache.prefetcher         9842                       # number of overall hits
system.l2.overall_hits::total                   24825                       # number of overall hits
system.l2.demand_misses::.cpu.inst               2108                       # number of demand (read+write) misses
system.l2.demand_misses::.cpu.data               1490                       # number of demand (read+write) misses
system.l2.demand_misses::total                   3598                       # number of demand (read+write) misses
system.l2.overall_misses::.cpu.inst              2108                       # number of overall misses
system.l2.overall_misses::.cpu.data              1490                       # number of overall misses
system.l2.overall_misses::total                  3598                       # number of overall misses
system.l2.demand_miss_latency::.cpu.inst    165642000                       # number of demand (read+write) miss cycles
system.l2.demand_miss_latency::.cpu.data    120552500                       # number of demand (read+write) miss cycles
system.l2.demand_miss_latency::total        286194500                       # number of demand (read+write) miss cycles
system.l2.overall_miss_latency::.cpu.inst    165642000                       # number of overall miss cycles
system.l2.overall_miss_latency::.cpu.data    120552500                       # number of overall miss cycles
system.l2.overall_miss_latency::total       286194500                       # number of overall miss cycles
system.l2.demand_accesses::.cpu.inst            16717                       # number of demand (read+write) accesses
system.l2.demand_accesses::.cpu.data             1864                       # number of demand (read+write) accesses
system.l2.demand_accesses::.cpu.icache.prefetcher         9842                       # number of demand (read+write) accesses
system.l2.demand_accesses::total                28423                       # number of demand (read+write) accesses
system.l2.overall_accesses::.cpu.inst           16717                       # number of overall (read+write) accesses
system.l2.overall_accesses::.cpu.data            1864                       # number of overall (read+write) accesses
system.l2.overall_accesses::.cpu.icache.prefetcher         9842                       # number of overall (read+write) accesses
system.l2.overall_accesses::total               28423                       # number of overall (read+write) accesses
system.l2.demand_miss_rate::.cpu.inst        0.126099                       # miss rate for demand accesses
system.l2.demand_miss_rate::.cpu.data        0.799356                       # miss rate for demand accesses
system.l2.demand_miss_rate::total            0.126588                       # miss rate for demand accesses
system.l2.overall_miss_rate::.cpu.inst       0.126099                       # miss rate for overall accesses
system.l2.overall_miss_rate::.cpu.data       0.799356                       # miss rate for overall accesses
system.l2.overall_miss_rate::total           0.126588                       # miss rate for overall accesses
system.l2.demand_avg_miss_latency::.cpu.inst 78577.798861                       # average overall miss latency
system.l2.demand_avg_miss_latency::.cpu.data 80907.718121                       # average overall miss latency
system.l2.demand_avg_miss_latency::total 79542.662590                       # average overall miss latency
system.l2.overall_avg_miss_latency::.cpu.inst 78577.798861                       # average overall miss latency
system.l2.overall_avg_miss_latency::.cpu.data 80907.718121                       # average overall miss latency
system.l2.overall_avg_miss_latency::total 79542.662590                       # average overall miss latency
system.l2.blocked_cycles::no_mshrs                  0                       # number of cycles access was blocked
system.l2.blocked_cycles::no_targets                0                       # number of cycles access was blocked
system.l2.blocked::no_mshrs                         0                       # number of cycles access was blocked
system.l2.blocked::no_targets                       0                       # number of cycles access was blocked
system.l2.avg_blocked_cycles::no_mshrs            nan                       # average number of cycles each access was blocked
system.l2.avg_blocked_cycles::no_targets          nan                       # average number of cycles each access was blocked
system.l2.demand_mshr_misses::.cpu.inst          2108                       # number of demand (read+write) MSHR misses
system.l2.demand_mshr_misses::.cpu.data          1490                       # number of demand (read+write) MSHR misses
system.l2.demand_mshr_misses::total              3598                       # number of demand (read+write) MSHR misses
system.l2.overall_mshr_misses::.cpu.inst         2108                       # number of overall MSHR misses
system.l2.overall_mshr_misses::.cpu.data         1490                       # number of overall MSHR misses
system.l2.overall_mshr_misses::total             3598                       # number of overall MSHR misses
system.l2.demand_mshr_miss_latency::.cpu.inst    144562000                       # number of demand (read+write) MSHR miss cycles
system.l2.demand_mshr_miss_latency::.cpu.data    105651502                       # number of demand (read+write) MSHR miss cycles
system.l2.demand_mshr_miss_latency::total    250213502                       # number of demand (read+write) MSHR miss cycles
system.l2.overall_mshr_miss_latency::.cpu.inst    144562000                       # number of overall MSHR miss cycles
system.l2.overall_mshr_miss_latency::.cpu.data    105651502                       # number of overall MSHR miss cycles
system.l2.overall_mshr_miss_latency::total    250213502                       # number of overall MSHR miss cycles
system.l2.demand_mshr_miss_rate::.cpu.inst     0.126099                       # mshr miss rate for demand accesses
system.l2.demand_mshr_miss_rate::.cpu.data     0.799356                       # mshr miss rate for demand accesses
system.l2.demand_mshr_miss_rate::total       0.126588                       # mshr miss rate for demand accesses
system.l2.overall_mshr_miss_rate::.cpu.inst     0.126099                       # mshr miss rate for overall accesses
system.l2.overall_mshr_miss_rate::.cpu.data     0.799356                       # mshr miss rate for overall accesses
system.l2.overall_mshr_miss_rate::total      0.126588                       # mshr miss rate for overall accesses
system.l2.demand_avg_mshr_miss_latency::.cpu.inst 68577.798861                       # average overall mshr miss latency
system.l2.demand_avg_mshr_miss_latency::.cpu.data 70907.048322                       # average overall mshr miss latency
system.l2.demand_avg_mshr_miss_latency::total 69542.385214                       # average overall mshr miss latency
system.l2.overall_avg_mshr_miss_latency::.cpu.inst 68577.798861                       # average overall mshr miss latency
system.l2.overall_avg_mshr_miss_latency::.cpu.data 70907.048322                       # average overall mshr miss latency
system.l2.overall_avg_mshr_miss_latency::total 69542.385214                       # average overall mshr miss latency
system.l2.replacements                              0                       # number of replacements
system.l2.WritebackDirty_hits::.writebacks          634                       # number of WritebackDirty hits
system.l2.WritebackDirty_hits::total              634                       # number of WritebackDirty hits
system.l2.WritebackDirty_accesses::.writebacks          634                       # number of WritebackDirty accesses(hits+misses)
system.l2.WritebackDirty_accesses::total          634                       # number of WritebackDirty accesses(hits+misses)
system.l2.WritebackClean_hits::.writebacks        25589                       # number of WritebackClean hits
system.l2.WritebackClean_hits::total            25589                       # number of WritebackClean hits
system.l2.WritebackClean_accesses::.writebacks        25589                       # number of WritebackClean accesses(hits+misses)
system.l2.WritebackClean_accesses::total        25589                       # number of WritebackClean accesses(hits+misses)
system.l2.UpgradeReq_hits::.cpu.data                6                       # number of UpgradeReq hits
system.l2.UpgradeReq_hits::total                    6                       # number of UpgradeReq hits
system.l2.UpgradeReq_accesses::.cpu.data            6                       # number of UpgradeReq accesses(hits+misses)
system.l2.UpgradeReq_accesses::total                6                       # number of UpgradeReq accesses(hits+misses)
system.l2.ReadExReq_hits::.cpu.data                63                       # number of ReadExReq hits
system.l2.ReadExReq_hits::total                    63                       # number of ReadExReq hits
system.l2.ReadExReq_misses::.cpu.data             534                       # number of ReadExReq misses
system.l2.ReadExReq_misses::total                 534                       # number of ReadExReq misses
system.l2.ReadExReq_miss_latency::.cpu.data     45216500                       # number of ReadExReq miss cycles
system.l2.ReadExReq_miss_latency::total      45216500                       # number of ReadExReq miss cycles
system.l2.ReadExReq_accesses::.cpu.data           597                       # number of ReadExReq accesses(hits+misses)
system.l2.ReadExReq_accesses::total               597                       # number of ReadExReq accesses(hits+misses)
system.l2.ReadExReq_miss_rate::.cpu.data     0.894472                       # miss rate for ReadExReq accesses
system.l2.ReadExReq_miss_rate::total         0.894472                       # miss rate for ReadExReq accesses
system.l2.ReadExReq_avg_miss_latency::.cpu.data 84675.093633                       # average ReadExReq miss latency
system.l2.ReadExReq_avg_miss_latency::total 84675.093633                       # average ReadExReq miss latency
system.l2.ReadExReq_mshr_misses::.cpu.data          534                       # number of ReadExReq MSHR misses
system.l2.ReadExReq_mshr_misses::total            534                       # number of ReadExReq MSHR misses
system.l2.ReadExReq_mshr_miss_latency::.cpu.data     39875502                       # number of ReadExReq MSHR miss cycles
system.l2.ReadExReq_mshr_miss_latency::total     39875502                       # number of ReadExReq MSHR miss cycles
system.l2.ReadExReq_mshr_miss_rate::.cpu.data     0.894472                       # mshr miss rate for ReadExReq accesses
system.l2.ReadExReq_mshr_miss_rate::total     0.894472                       # mshr miss rate for ReadExReq accesses
system.l2.ReadExReq_avg_mshr_miss_latency::.cpu.data 74673.224719                       # average ReadExReq mshr miss latency
system.l2.ReadExReq_avg_mshr_miss_latency::total 74673.224719                       # average ReadExReq mshr miss latency
system.l2.ReadCleanReq_hits::.cpu.inst          14609                       # number of ReadCleanReq hits
system.l2.ReadCleanReq_hits::.cpu.icache.prefetcher         9842                       # number of ReadCleanReq hits
system.l2.ReadCleanReq_hits::total              24451                       # number of ReadCleanReq hits
system.l2.ReadCleanReq_misses::.cpu.inst         2108                       # number of ReadCleanReq misses
[...]
system.cpu.dcache.overall_miss_latency::.cpu.data    399665195                       # number of overall miss cycles
system.cpu.dcache.overall_miss_latency::total    399665195                       # number of overall miss cycles
system.cpu.dcache.demand_accesses::.cpu.data      2997601                       # number of demand (read+write) accesses
system.cpu.dcache.demand_accesses::total      2997601                       # number of demand (read+write) accesses
system.cpu.dcache.overall_accesses::.cpu.data      3009137                       # number of overall (read+write) accesses
system.cpu.dcache.overall_accesses::total      3009137                       # number of overall (read+write) accesses
system.cpu.dcache.demand_miss_rate::.cpu.data     0.002115                       # miss rate for demand accesses
system.cpu.dcache.demand_miss_rate::total     0.002115                       # miss rate for demand accesses
system.cpu.dcache.overall_miss_rate::.cpu.data     0.002116                       # miss rate for overall accesses
system.cpu.dcache.overall_miss_rate::total     0.002116                       # miss rate for overall accesses
system.cpu.dcache.demand_avg_miss_latency::.cpu.data 63038.674290                       # average overall miss latency
system.cpu.dcache.demand_avg_miss_latency::total 63038.674290                       # average overall miss latency
system.cpu.dcache.overall_avg_miss_latency::.cpu.data 62781.211907                       # average overall miss latency
system.cpu.dcache.overall_avg_miss_latency::total 62781.211907                       # average overall miss latency
system.cpu.dcache.blocked_cycles::no_mshrs        13600                       # number of cycles access was blocked
system.cpu.dcache.blocked_cycles::no_targets          355                       # number of cycles access was blocked
system.cpu.dcache.blocked::no_mshrs               385                       # number of cycles access was blocked
system.cpu.dcache.blocked::no_targets               5                       # number of cycles access was blocked
system.cpu.dcache.avg_blocked_cycles::no_mshrs    35.324675                       # average number of cycles each access was blocked
system.cpu.dcache.avg_blocked_cycles::no_targets           71                       # average number of cycles each access was blocked
system.cpu.dcache.writebacks::.writebacks          634                       # number of writebacks
system.cpu.dcache.writebacks::total               634                       # number of writebacks
system.cpu.dcache.demand_mshr_hits::.cpu.data         4345                       # number of demand (read+write) MSHR hits
system.cpu.dcache.demand_mshr_hits::total         4345                       # number of demand (read+write) MSHR hits
system.cpu.dcache.overall_mshr_hits::.cpu.data         4345                       # number of overall MSHR hits
system.cpu.dcache.overall_mshr_hits::total         4345                       # number of overall MSHR hits
system.cpu.dcache.demand_mshr_misses::.cpu.data         1995                       # number of demand (read+write) MSHR misses
system.cpu.dcache.demand_mshr_misses::total         1995                       # number of demand (read+write) MSHR misses
system.cpu.dcache.overall_mshr_misses::.cpu.data         2019                       # number of overall MSHR misses
system.cpu.dcache.overall_mshr_misses::total         2019                       # number of overall MSHR misses
system.cpu.dcache.demand_mshr_miss_latency::.cpu.data    129979890                       # number of demand (read+write) MSHR miss cycles
system.cpu.dcache.demand_mshr_miss_latency::total    129979890                       # number of demand (read+write) MSHR miss cycles
system.cpu.dcache.overall_mshr_miss_latency::.cpu.data    131918390                       # number of overall MSHR miss cycles
system.cpu.dcache.overall_mshr_miss_latency::total    131918390                       # number of overall MSHR miss cycles
system.cpu.dcache.demand_mshr_miss_rate::.cpu.data     0.000666                       # mshr miss rate for demand accesses
system.cpu.dcache.demand_mshr_miss_rate::total     0.000666                       # mshr miss rate for demand accesses
system.cpu.dcache.overall_mshr_miss_rate::.cpu.data     0.000671                       # mshr miss rate for overall accesses
system.cpu.dcache.overall_mshr_miss_rate::total     0.000671                       # mshr miss rate for overall accesses
system.cpu.dcache.demand_avg_mshr_miss_latency::.cpu.data 65152.827068                       # average overall mshr miss latency
system.cpu.dcache.demand_avg_mshr_miss_latency::total 65152.827068                       # average overall mshr miss latency
system.cpu.dcache.overall_avg_mshr_miss_latency::.cpu.data 65338.479445                       # average overall mshr miss latency
system.cpu.dcache.overall_avg_mshr_miss_latency::total 65338.479445                       # average overall mshr miss latency
system.cpu.dcache.replacements                   1046                       # number of replacements
system.cpu.dcache.ReadReq_hits::.cpu.data      1798713                       # number of ReadReq hits
system.cpu.dcache.ReadReq_hits::total         1798713                       # number of ReadReq hits
system.cpu.dcache.ReadReq_misses::.cpu.data         2594                       # number of ReadReq misses
system.cpu.dcache.ReadReq_misses::total          2594                       # number of ReadReq misses
system.cpu.dcache.ReadReq_miss_latency::.cpu.data    149222000                       # number of ReadReq miss cycles
system.cpu.dcache.ReadReq_miss_latency::total    149222000                       # number of ReadReq miss cycles
system.cpu.dcache.ReadReq_accesses::.cpu.data      1801307                       # number of ReadReq accesses(hits+misses)
system.cpu.dcache.ReadReq_accesses::total      1801307                       # number of ReadReq accesses(hits+misses)
system.cpu.dcache.ReadReq_miss_rate::.cpu.data     0.001440                       # miss rate for ReadReq accesses
system.cpu.dcache.ReadReq_miss_rate::total     0.001440                       # miss rate for ReadReq accesses
system.cpu.dcache.ReadReq_avg_miss_latency::.cpu.data 57525.828836                       # average ReadReq miss latency
system.cpu.dcache.ReadReq_avg_miss_latency::total 57525.828836                       # average ReadReq miss latency
system.cpu.dcache.ReadReq_mshr_hits::.cpu.data         1353                       # number of ReadReq MSHR hits
system.cpu.dcache.ReadReq_mshr_hits::total         1353                       # number of ReadReq MSHR hits
system.cpu.dcache.ReadReq_mshr_misses::.cpu.data         1241                       # number of ReadReq MSHR misses
system.cpu.dcache.ReadReq_mshr_misses::total         1241                       # number of ReadReq MSHR misses
system.cpu.dcache.ReadReq_mshr_miss_latency::.cpu.data     78457500                       # number of ReadReq MSHR miss cycles
system.cpu.dcache.ReadReq_mshr_miss_latency::total     78457500                       # number of ReadReq MSHR miss cycles
system.cpu.dcache.ReadReq_mshr_miss_rate::.cpu.data     0.000689                       # mshr miss rate for ReadReq accesses
system.cpu.dcache.ReadReq_mshr_miss_rate::total     0.000689                       # mshr miss rate for ReadReq accesses
system.cpu.dcache.ReadReq_avg_mshr_miss_latency::.cpu.data 63221.192587                       # average ReadReq mshr miss latency
system.cpu.dcache.ReadReq_avg_mshr_miss_latency::total 63221.192587                       # average ReadReq mshr miss latency
system.cpu.dcache.WriteReq_hits::.cpu.data      1191511                       # number of WriteReq hits
system.cpu.dcache.WriteReq_hits::total        1191511                       # number of WriteReq hits
system.cpu.dcache.WriteReq_misses::.cpu.data         3608                       # number of WriteReq misses
system.cpu.dcache.WriteReq_misses::total         3608                       # number of WriteReq misses
system.cpu.dcache.WriteReq_miss_latency::.cpu.data    246035779                       # number of WriteReq miss cycles
system.cpu.dcache.WriteReq_miss_latency::total    246035779                       # number of WriteReq miss cycles
system.cpu.dcache.WriteReq_accesses::.cpu.data      1195119                       # number of WriteReq accesses(hits+misses)
system.cpu.dcache.WriteReq_accesses::total      1195119                       # number of WriteReq accesses(hits+misses)
system.cpu.dcache.WriteReq_miss_rate::.cpu.data     0.003019                       # miss rate for WriteReq accesses
system.cpu.dcache.WriteReq_miss_rate::total     0.003019                       # miss rate for WriteReq accesses
system.cpu.dcache.WriteReq_avg_miss_latency::.cpu.data 68191.734756                       # average WriteReq miss latency
system.cpu.dcache.WriteReq_avg_miss_latency::total 68191.734756                       # average WriteReq miss latency
system.cpu.dcache.WriteReq_mshr_hits::.cpu.data         2992                       # number of WriteReq MSHR hits
system.cpu.dcache.WriteReq_mshr_hits::total         2992                       # number of WriteReq MSHR hits
system.cpu.dcache.WriteReq_mshr_misses::.cpu.data          616                       # number of WriteReq MSHR misses
system.cpu.dcache.WriteReq_mshr_misses::total          616                       # number of WriteReq MSHR misses
system.cpu.dcache.WriteReq_mshr_miss_latency::.cpu.data     47252974                       # number of WriteReq MSHR miss cycles
system.cpu.dcache.WriteReq_mshr_miss_latency::total     47252974                       # number of WriteReq MSHR miss cycles
system.cpu.dcache.WriteReq_mshr_miss_rate::.cpu.data     0.000515                       # mshr miss rate for WriteReq accesses
system.cpu.dcache.WriteReq_mshr_miss_rate::total     0.000515                       # mshr miss rate for WriteReq accesses
system.cpu.dcache.WriteReq_avg_mshr_miss_latency::.cpu.data 76709.373377                       # average WriteReq mshr miss latency
system.cpu.dcache.WriteReq_avg_mshr_miss_latency::total 76709.373377                       # average WriteReq mshr miss latency
system.cpu.dcache.SoftPFReq_hits::.cpu.data        11510                       # number of SoftPFReq hits
system.cpu.dcache.SoftPFReq_hits::total         11510                       # number of SoftPFReq hits
system.cpu.dcache.SoftPFReq_misses::.cpu.data           26                       # number of SoftPFReq misses
system.cpu.dcache.SoftPFReq_misses::total           26                       # number of SoftPFReq misses
system.cpu.dcache.SoftPFReq_accesses::.cpu.data        11536                       # number of SoftPFReq accesses(hits+misses)
system.cpu.dcache.SoftPFReq_accesses::total        11536                       # number of SoftPFReq accesses(hits+misses)
system.cpu.dcache.SoftPFReq_miss_rate::.cpu.data     0.002254                       # miss rate for SoftPFReq accesses
system.cpu.dcache.SoftPFReq_miss_rate::total     0.002254                       # miss rate for SoftPFReq accesses
system.cpu.dcache.SoftPFReq_mshr_misses::.cpu.data           24                       # number of SoftPFReq MSHR misses
system.cpu.dcache.SoftPFReq_mshr_misses::total           24                       # number of SoftPFReq MSHR misses
system.cpu.dcache.SoftPFReq_mshr_miss_latency::.cpu.data      1938500                       # number of SoftPFReq MSHR miss cycles
system.cpu.dcache.SoftPFReq_mshr_miss_latency::total      1938500                       # number of SoftPFReq MSHR miss cycles
system.cpu.dcache.SoftPFReq_mshr_miss_rate::.cpu.data     0.002080                       # mshr miss rate for SoftPFReq accesses
system.cpu.dcache.SoftPFReq_mshr_miss_rate::total     0.002080                       # mshr miss rate for SoftPFReq accesses
system.cpu.dcache.SoftPFReq_avg_mshr_miss_latency::.cpu.data 80770.833333                       # average SoftPFReq mshr miss latency
system.cpu.dcache.SoftPFReq_avg_mshr_miss_latency::total 80770.833333                       # average SoftPFReq mshr miss latency
system.cpu.dcache.WriteLineReq_hits::.cpu.data         1037                       # number of WriteLineReq hits
system.cpu.dcache.WriteLineReq_hits::total         1037                       # number of WriteLineReq hits
system.cpu.dcache.WriteLineReq_misses::.cpu.data          138                       # number of WriteLineReq misses
system.cpu.dcache.WriteLineReq_misses::total          138                       # number of WriteLineReq misses
system.cpu.dcache.WriteLineReq_miss_latency::.cpu.data      4407416                       # number of WriteLineReq miss cycles
system.cpu.dcache.WriteLineReq_miss_latency::total      4407416                       # number of WriteLineReq miss cycles
system.cpu.dcache.WriteLineReq_accesses::.cpu.data         1175                       # number of WriteLineReq accesses(hits+misses)
system.cpu.dcache.WriteLineReq_accesses::total         1175                       # number of WriteLineReq accesses(hits+misses)
system.cpu.dcache.WriteLineReq_miss_rate::.cpu.data     0.117447                       # miss rate for WriteLineReq accesses
system.cpu.dcache.WriteLineReq_miss_rate::total     0.117447                       # miss rate for WriteLineReq accesses
system.cpu.dcache.WriteLineReq_avg_miss_latency::.cpu.data 31937.797101                       # average WriteLineReq miss latency
system.cpu.dcache.WriteLineReq_avg_miss_latency::total 31937.797101                       # average WriteLineReq miss latency
system.cpu.dcache.WriteLineReq_mshr_misses::.cpu.data          138                       # number of WriteLineReq MSHR misses
system.cpu.dcache.WriteLineReq_mshr_misses::total          138                       # number of WriteLineReq MSHR misses
system.cpu.dcache.WriteLineReq_mshr_miss_latency::.cpu.data      4269416                       # number of WriteLineReq MSHR miss cycles
system.cpu.dcache.WriteLineReq_mshr_miss_latency::total      4269416                       # number of WriteLineReq MSHR miss cycles
system.cpu.dcache.WriteLineReq_mshr_miss_rate::.cpu.data     0.117447                       # mshr miss rate for WriteLineReq accesses
system.cpu.dcache.WriteLineReq_mshr_miss_rate::total     0.117447                       # mshr miss rate for WriteLineReq accesses
system.cpu.dcache.WriteLineReq_avg_mshr_miss_latency::.cpu.data 30937.797101                       # average WriteLineReq mshr miss latency
system.cpu.dcache.WriteLineReq_avg_mshr_miss_latency::total 30937.797101                       # average WriteLineReq mshr miss latency
system.cpu.dcache.LoadLockedReq_hits::.cpu.data         5830                       # number of LoadLockedReq hits
system.cpu.dcache.LoadLockedReq_hits::total         5830                       # number of LoadLockedReq hits
system.cpu.dcache.LoadLockedReq_misses::.cpu.data            2                       # number of LoadLockedReq misses
system.cpu.dcache.LoadLockedReq_misses::total            2                       # number of LoadLockedReq misses
system.cpu.dcache.LoadLockedReq_miss_latency::.cpu.data       186500                       # number of LoadLockedReq miss cycles
system.cpu.dcache.LoadLockedReq_miss_latency::total       186500                       # number of LoadLockedReq miss cycles
system.cpu.dcache.LoadLockedReq_accesses::.cpu.data         5832                       # number of LoadLockedReq accesses(hits+misses)
system.cpu.dcache.LoadLockedReq_accesses::total         5832                       # number of LoadLockedReq accesses(hits+misses)
system.cpu.dcache.LoadLockedReq_miss_rate::.cpu.data     0.000343                       # miss rate for LoadLockedReq accesses
system.cpu.dcache.LoadLockedReq_miss_rate::total     0.000343                       # miss rate for LoadLockedReq accesses
system.cpu.dcache.LoadLockedReq_avg_miss_latency::.cpu.data        93250                       # average LoadLockedReq miss latency
system.cpu.dcache.LoadLockedReq_avg_miss_latency::total        93250                       # average LoadLockedReq miss latency
system.cpu.dcache.LoadLockedReq_mshr_misses::.cpu.data            2                       # number of LoadLockedReq MSHR misses
system.cpu.dcache.LoadLockedReq_mshr_misses::total            2                       # number of LoadLockedReq MSHR misses
system.cpu.dcache.LoadLockedReq_mshr_miss_latency::.cpu.data       184500                       # number of LoadLockedReq MSHR miss cycles
system.cpu.dcache.LoadLockedReq_mshr_miss_latency::total       184500                       # number of LoadLockedReq MSHR miss cycles
system.cpu.dcache.LoadLockedReq_mshr_miss_rate::.cpu.data     0.000343                       # mshr miss rate for LoadLockedReq accesses
system.cpu.dcache.LoadLockedReq_mshr_miss_rate::total     0.000343                       # mshr miss rate for LoadLockedReq accesses
system.cpu.dcache.LoadLockedReq_avg_mshr_miss_latency::.cpu.data        92250                       # average LoadLockedReq mshr miss latency
system.cpu.dcache.LoadLockedReq_avg_mshr_miss_latency::total        92250                       # average LoadLockedReq mshr miss latency
system.cpu.dcache.StoreCondReq_hits::.cpu.data         5240                       # number of StoreCondReq hits
system.cpu.dcache.StoreCondReq_hits::total         5240                       # number of StoreCondReq hits
system.cpu.dcache.StoreCondReq_accesses::.cpu.data         5240                       # number of StoreCondReq accesses(hits+misses)
system.cpu.dcache.StoreCondReq_accesses::total         5240                       # number of StoreCondReq accesses(hits+misses)
system.cpu.dcache.power_state.pwrStateResidencyTicks::UNDEFINED   2809958500                       # Cumulative time (in ticks) in various power states
system.cpu.dcache.tags.tagsinuse           920.819592                       # Cycle average of tags in use
system.cpu.dcache.tags.total_refs             3015901                       # Total number of references to valid blocks.
system.cpu.dcache.tags.sampled_refs              2013                       # Sample count of references to valid blocks.
system.cpu.dcache.tags.avg_refs           1498.212121                       # Average number of references to valid blocks.
system.cpu.dcache.tags.warmup_cycle            176500                       # Cycle when the warmup percentage was hit.
system.cpu.dcache.tags.occ_blocks::.cpu.data   920.819592                       # Average occupied blocks per requestor
system.cpu.dcache.tags.occ_percent::.cpu.data     0.899238                       # Average percentage of cache occupancy
system.cpu.dcache.tags.occ_percent::total     0.899238                       # Average percentage of cache occupancy
system.cpu.dcache.tags.occ_task_id_blocks::1024          967                       # Occupied blocks per task id
system.cpu.dcache.tags.age_task_id_blocks_1024::1            3                       # Occupied blocks per task id
system.cpu.dcache.tags.age_task_id_blocks_1024::2           15                       # Occupied blocks per task id
system.cpu.dcache.tags.age_task_id_blocks_1024::3          949                       # Occupied blocks per task id
system.cpu.dcache.tags.occ_task_id_percent::1024     0.944336                       # Percentage of cache occupancy per task id
system.cpu.dcache.tags.tag_accesses           6042431                       # Number of tag accesses
system.cpu.dcache.tags.data_accesses          6042431                       # Number of data accesses
system.cpu.dcache.tags.power_state.pwrStateResidencyTicks::UNDEFINED   2809958500                       # Cumulative time (in ticks) in various power states
system.cpu.power_state.pwrStateResidencyTicks::ON   2809958500                       # Cumulative time (in ticks) in various power states

---------- End Simulation Statistics   ----------
