
---------- Begin Simulation Statistics ----------
final_tick                                  357402000                       # Number of ticks from beginning of simulation (restored from checkpoints and never reset)
host_inst_rate                                 209409                       # Simulator instruction rate (inst/s)
host_mem_usage                                 859692                       # Number of bytes of host memory used
host_op_rate                                   233223                       # Simulator op (including micro ops) rate (op/s)
host_seconds                                     4.78                       # Real time elapsed on the host
host_tick_rate                               74840411                       # Simulator tick rate (ticks/s)
sim_freq                                 1000000000000                       # Frequency of simulated ticks
sim_insts                                     1000000                       # Number of instructions simulated
sim_ops                                       1113757                       # Number of ops (including micro ops) simulated
sim_seconds                                  0.000357                       # Number of seconds simulated
sim_ticks                                   357402000                       # Number of ticks simulated
system.cpu.branchPred.BTBCorrect                    0                       # Number of correct BTB predictions (this stat may not work properly.
system.cpu.branchPred.BTBHitPct             97.567611                       # BTB Hit Percentage
system.cpu.branchPred.BTBHits                   96469                       # Number of BTB hits
system.cpu.branchPred.BTBLookups                98874                       # Number of BTB lookups
system.cpu.branchPred.RASInCorrect                  0                       # Number of incorrect RAS predictions.
system.cpu.branchPred.condIncorrect              4820                       # Number of conditional branches incorrect
system.cpu.branchPred.condPredicted            152795                       # Number of conditional branches predicted
system.cpu.branchPred.indirectHits               3409                       # Number of indirect target hits.
system.cpu.branchPred.indirectLookups            3608                       # Number of indirect predictor lookups.
system.cpu.branchPred.indirectMisses              199                       # Number of indirect misses.
system.cpu.branchPred.lookups                  205384                       # Number of BP lookups
system.cpu.branchPred.usedRAS                   18610                       # Number of times the RAS was used to get a target.
system.cpu.branchPredindirectMispredicted           56                       # Number of mispredicted indirect branches.
system.cpu.cc_regfile_reads                    352761                       # number of cc regfile reads
system.cpu.cc_regfile_writes                   352229                       # number of cc regfile writes
system.cpu.commit.amos                              0                       # Number of atomic instructions committed
system.cpu.commit.branchMispredicts              4292                       # The number of times a branch was mispredicted
system.cpu.commit.branches                     187499                       # Number of branches committed
system.cpu.commit.bw_lim_events                 60840                       # number cycles where commit BW limit reached
system.cpu.commit.commitNonSpecStalls            1151                       # The number of times commit has been forced to stall to communicate backwards
system.cpu.commit.commitSquashedInsts           50080                       # The number of squashed insts skipped by commit
system.cpu.commit.committedInsts              1000848                       # Number of instructions committed
system.cpu.commit.committedOps                1114605                       # Number of ops (including micro ops) committed
system.cpu.commit.committed_per_cycle::samples       644822                       # Number of insts commited each cycle
system.cpu.commit.committed_per_cycle::mean     1.728547                       # Number of insts commited each cycle
system.cpu.commit.committed_per_cycle::stdev     2.507142                       # Number of insts commited each cycle
system.cpu.commit.committed_per_cycle::underflows            0      0.00%      0.00% # Number of insts commited each cycle
system.cpu.commit.committed_per_cycle::0       311923     48.37%     48.37% # Number of insts commited each cycle
system.cpu.commit.committed_per_cycle::1       108176     16.78%     65.15% # Number of insts commited each cycle
system.cpu.commit.committed_per_cycle::2        73875     11.46%     76.61% # Number of insts commited each cycle
system.cpu.commit.committed_per_cycle::3        41454      6.43%     83.04% # Number of insts commited each cycle
system.cpu.commit.committed_per_cycle::4        15085      2.34%     85.37% # Number of insts commited each cycle
system.cpu.commit.committed_per_cycle::5        19656      3.05%     88.42% # Number of insts commited each cycle
system.cpu.commit.committed_per_cycle::6         7714      1.20%     89.62% # Number of insts commited each cycle
system.cpu.commit.committed_per_cycle::7         6099      0.95%     90.56% # Number of insts commited each cycle
system.cpu.commit.committed_per_cycle::8        60840      9.44%    100.00% # Number of insts commited each cycle
system.cpu.commit.committed_per_cycle::overflows            0      0.00%    100.00% # Number of insts commited each cycle
system.cpu.commit.committed_per_cycle::min_value            0                       # Number of insts commited each cycle
system.cpu.commit.committed_per_cycle::max_value            8                       # Number of insts commited each cycle
system.cpu.commit.committed_per_cycle::total       644822                       # Number of insts commited each cycle
system.cpu.commit.fp_insts                          0                       # Number of committed floating point instructions.
system.cpu.commit.function_calls                18322                       # Number of function calls committed.
system.cpu.commit.int_insts                    994638                       # Number of committed integer instructions.
system.cpu.commit.loads                        162174                       # Number of loads committed
system.cpu.commit.membars                        1143                       # Number of memory barriers committed
system.cpu.commit.op_class_0::No_OpClass         1144      0.10%      0.10% # Class of committed instruction
system.cpu.commit.op_class_0::IntAlu           756750     67.89%     68.00% # Class of committed instruction
system.cpu.commit.op_class_0::IntMult           22606      2.03%     70.02% # Class of committed instruction
system.cpu.commit.op_class_0::IntDiv                3      0.00%     70.03% # Class of committed instruction
system.cpu.commit.op_class_0::FloatAdd              0      0.00%     70.03% # Class of committed instruction
system.cpu.commit.op_class_0::FloatCmp           1136      0.10%     70.13% # Class of committed instruction
system.cpu.commit.op_class_0::FloatCvt            568      0.05%     70.18% # Class of committed instruction
system.cpu.commit.op_class_0::FloatMult             0      0.00%     70.18% # Class of committed instruction
system.cpu.commit.op_class_0::FloatMultAcc            0      0.00%     70.18% # Class of committed instruction
system.cpu.commit.op_class_0::FloatDiv            568      0.05%     70.23% # Class of committed instruction
system.cpu.commit.op_class_0::FloatMisc          2272      0.20%     70.43% # Class of committed instruction
system.cpu.commit.op_class_0::FloatSqrt             0      0.00%     70.43% # Class of committed instruction
system.cpu.commit.op_class_0::SimdAdd            2300      0.21%     70.64% # Class of committed instruction
system.cpu.commit.op_class_0::SimdAddAcc            0      0.00%     70.64% # Class of committed instruction
system.cpu.commit.op_class_0::SimdAlu            4573      0.41%     71.05% # Class of committed instruction
system.cpu.commit.op_class_0::SimdCmp            4576      0.41%     71.46% # Class of committed instruction
system.cpu.commit.op_class_0::SimdCvt               0      0.00%     71.46% # Class of committed instruction
system.cpu.commit.op_class_0::SimdMisc           3433      0.31%     71.77% # Class of committed instruction
system.cpu.commit.op_class_0::SimdMult              0      0.00%     71.77% # Class of committed instruction
system.cpu.commit.op_class_0::SimdMultAcc            0      0.00%     71.77% # Class of committed instruction
system.cpu.commit.op_class_0::SimdShift             0      0.00%     71.77% # Class of committed instruction
system.cpu.commit.op_class_0::SimdShiftAcc            0      0.00%     71.77% # Class of committed instruction
system.cpu.commit.op_class_0::SimdDiv               0      0.00%     71.77% # Class of committed instruction
system.cpu.commit.op_class_0::SimdSqrt              0      0.00%     71.77% # Class of committed instruction
system.cpu.commit.op_class_0::SimdFloatAdd            0      0.00%     71.77% # Class of committed instruction
system.cpu.commit.op_class_0::SimdFloatAlu            0      0.00%     71.77% # Class of committed instruction
system.cpu.commit.op_class_0::SimdFloatCmp            0      0.00%     71.77% # Class of committed instruction
system.cpu.commit.op_class_0::SimdFloatCvt            0      0.00%     71.77% # Class of committed instruction
system.cpu.commit.op_class_0::SimdFloatDiv            0      0.00%     71.77% # Class of committed instruction
system.cpu.commit.op_class_0::SimdFloatMisc            0      0.00%     71.77% # Class of committed instruction
system.cpu.commit.op_class_0::SimdFloatMult            0      0.00%     71.77% # Class of committed instruction
system.cpu.commit.op_class_0::SimdFloatMultAcc            0      0.00%     71.77% # Class of committed instruction
system.cpu.commit.op_class_0::SimdFloatSqrt            0      0.00%     71.77% # Class of committed instruction
system.cpu.commit.op_class_0::SimdReduceAdd            0      0.00%     71.77% # Class of committed instruction
system.cpu.commit.op_class_0::SimdReduceAlu            0      0.00%     71.77% # Class of committed instruction
system.cpu.commit.op_class_0::SimdReduceCmp            0      0.00%     71.77% # Class of committed instruction
system.cpu.commit.op_class_0::SimdFloatReduceAdd            0      0.00%     71.77% # Class of committed instruction
system.cpu.commit.op_class_0::SimdFloatReduceCmp            0      0.00%     71.77% # Class of committed instruction
system.cpu.commit.op_class_0::SimdAes               0      0.00%     71.77% # Class of committed instruction
system.cpu.commit.op_class_0::SimdAesMix            0      0.00%     71.77% # Class of committed instruction
system.cpu.commit.op_class_0::SimdSha1Hash            0      0.00%     71.77% # Class of committed instruction
system.cpu.commit.op_class_0::SimdSha1Hash2            0      0.00%     71.77% # Class of committed instruction
system.cpu.commit.op_class_0::SimdSha256Hash            0      0.00%     71.77% # Class of committed instruction
system.cpu.commit.op_class_0::SimdSha256Hash2            0      0.00%     71.77% # Class of committed instruction
system.cpu.commit.op_class_0::SimdShaSigma2            0      0.00%     71.77% # Class of committed instruction
system.cpu.commit.op_class_0::SimdShaSigma3            0      0.00%     71.77% # Class of committed instruction
system.cpu.commit.op_class_0::SimdPredAlu            0      0.00%     71.77% # Class of committed instruction
system.cpu.commit.op_class_0::MemRead          162174     14.55%     86.32% # Class of committed instruction
system.cpu.commit.op_class_0::MemWrite         152502     13.68%    100.00% # Class of committed instruction
system.cpu.commit.op_class_0::FloatMemRead            0      0.00%    100.00% # Class of committed instruction
system.cpu.commit.op_class_0::FloatMemWrite            0      0.00%    100.00% # Class of committed instruction
system.cpu.commit.op_class_0::IprAccess             0      0.00%    100.00% # Class of committed instruction
system.cpu.commit.op_class_0::InstPrefetch            0      0.00%    100.00% # Class of committed instruction
system.cpu.commit.op_class_0::total           1114605                       # Class of committed instruction
system.cpu.commit.refs                         314676                       # Number of memory references committed
system.cpu.commit.swp_count                         0                       # Number of s/w prefetches committed
system.cpu.commit.vec_insts                     33724                       # Number of committed Vector instructions.
system.cpu.committedInsts                     1000000                       # Number of Instructions Simulated
system.cpu.committedOps                       1113757                       # Number of Ops (including micro ops) Simulated
system.cpu.cpi                               0.714805                       # CPI: Cycles Per Instruction
system.cpu.cpi_total                         0.714805                       # CPI: Total CPI of All Threads
system.cpu.decode.BlockedCycles                 80354                       # Number of cycles decode is blocked
system.cpu.decode.BranchMispred                   533                       # Number of times decode detected a branch misprediction
system.cpu.decode.BranchResolved                95565                       # Number of times decode resolved a branch
system.cpu.decode.DecodedInsts                1194237                       # Number of instructions handled by decode
system.cpu.decode.IdleCycles                   336316                       # Number of cycles decode is idle
system.cpu.decode.RunCycles                    225529                       # Number of cycles decode is running
system.cpu.decode.SquashCycles                   4321                       # Number of cycles decode is squashing
system.cpu.decode.SquashedInsts                   836                       # Number of squashed instructions handled by decode
system.cpu.decode.UnblockCycles                  6939                       # Number of cycles decode is unblocking
system.cpu.dtb.accesses                             0                       # DTB accesses
system.cpu.dtb.align_faults                         0                       # Number of TLB faults due to alignment restrictions
system.cpu.dtb.domain_faults                        0                       # Number of TLB faults due to domain restrictions
system.cpu.dtb.flush_entries                        0                       # Number of entries that have been flushed from TLB
system.cpu.dtb.flush_tlb                            0                       # Number of times complete TLB was flushed
system.cpu.dtb.flush_tlb_asid                       0                       # Number of times TLB was flushed by ASID
system.cpu.dtb.flush_tlb_mva                        0                       # Number of times TLB was flushed by MVA
system.cpu.dtb.flush_tlb_mva_asid                   0                       # Number of times TLB was flushed by MVA & ASID
system.cpu.dtb.hits                                 0                       # DTB hits
system.cpu.dtb.inst_accesses                        0                       # ITB inst accesses
system.cpu.dtb.inst_hits                            0                       # ITB inst hits
system.cpu.dtb.inst_misses                          0                       # ITB inst misses
system.cpu.dtb.misses                               0                       # DTB misses
system.cpu.dtb.perms_faults                         0                       # Number of TLB faults due to permissions restrictions
system.cpu.dtb.prefetch_faults                      0                       # Number of TLB faults due to prefetch
system.cpu.dtb.read_accesses                        0                       # DTB read accesses
system.cpu.dtb.read_hits                            0                       # DTB read hits
system.cpu.dtb.read_misses                          0                       # DTB read misses
system.cpu.dtb.stage2_mmu.stage2_tlb.accesses            0                       # DTB accesses
system.cpu.dtb.stage2_mmu.stage2_tlb.align_faults            0                       # Number of TLB faults due to alignment restrictions
system.cpu.dtb.stage2_mmu.stage2_tlb.domain_faults            0                       # Number of TLB faults due to domain restrictions
system.cpu.dtb.stage2_mmu.stage2_tlb.flush_entries            0                       # Number of entries that have been flushed from TLB
system.cpu.dtb.stage2_mmu.stage2_tlb.flush_tlb            0                       # Number of times complete TLB was flushed
system.cpu.dtb.stage2_mmu.stage2_tlb.flush_tlb_asid            0                       # Number of times TLB was flushed by ASID
system.cpu.dtb.stage2_mmu.stage2_tlb.flush_tlb_mva            0                       # Number of times TLB was flushed by MVA
system.cpu.dtb.stage2_mmu.stage2_tlb.flush_tlb_mva_asid            0                       # Number of times TLB was flushed by MVA & ASID
system.cpu.dtb.stage2_mmu.stage2_tlb.hits            0                       # DTB hits
system.cpu.dtb.stage2_mmu.stage2_tlb.inst_accesses            0                       # ITB inst accesses
system.cpu.dtb.stage2_mmu.stage2_tlb.inst_hits            0                       # ITB inst hits
system.cpu.dtb.stage2_mmu.stage2_tlb.inst_misses            0                       # ITB inst misses
system.cpu.dtb.stage2_mmu.stage2_tlb.misses            0                       # DTB misses
system.cpu.dtb.stage2_mmu.stage2_tlb.perms_faults            0                       # Number of TLB faults due to permissions restrictions
system.cpu.dtb.stage2_mmu.stage2_tlb.prefetch_faults            0                       # Number of TLB faults due to prefetch
system.cpu.dtb.stage2_mmu.stage2_tlb.read_accesses            0                       # DTB read accesses
system.cpu.dtb.stage2_mmu.stage2_tlb.read_hits            0                       # DTB read hits
system.cpu.dtb.stage2_mmu.stage2_tlb.read_misses            0                       # DTB read misses
system.cpu.dtb.stage2_mmu.stage2_tlb.walker.walkRequestOrigin_Requested::Data            0                       # Table walker requests started/completed, data/inst
system.cpu.dtb.stage2_mmu.stage2_tlb.walker.walkRequestOrigin_Requested::Inst            0                       # Table walker requests started/completed, data/inst
system.cpu.dtb.stage2_mmu.stage2_tlb.walker.walkRequestOrigin_Requested::total            0                       # Table walker requests started/completed, data/inst
system.cpu.dtb.stage2_mmu.stage2_tlb.walker.walkRequestOrigin_Completed::Data            0                       # Table walker requests started/completed, data/inst
system.cpu.dtb.stage2_mmu.stage2_tlb.walker.walkRequestOrigin_Completed::Inst            0                       # Table walker requests started/completed, data/inst
system.cpu.dtb.stage2_mmu.stage2_tlb.walker.walkRequestOrigin_Completed::total            0                       # Table walker requests started/completed, data/inst
system.cpu.dtb.stage2_mmu.stage2_tlb.walker.walkRequestOrigin::total            0                       # Table walker requests started/completed, data/inst
system.cpu.dtb.stage2_mmu.stage2_tlb.walker.walks            0                       # Table walker walks requested
system.cpu.dtb.stage2_mmu.stage2_tlb.write_accesses            0                       # DTB write accesses
system.cpu.dtb.stage2_mmu.stage2_tlb.write_hits            0                       # DTB write hits
system.cpu.dtb.stage2_mmu.stage2_tlb.write_misses            0                       # DTB write misses
system.cpu.dtb.walker.walkRequestOrigin_Requested::Data            0                       # Table walker requests started/completed, data/inst
system.cpu.dtb.walker.walkRequestOrigin_Requested::Inst            0                       # Table walker requests started/completed, data/inst
system.cpu.dtb.walker.walkRequestOrigin_Requested::total            0                       # Table walker requests started/completed, data/inst
system.cpu.dtb.walker.walkRequestOrigin_Completed::Data            0                       # Table walker requests started/completed, data/inst
system.cpu.dtb.walker.walkRequestOrigin_Completed::Inst            0                       # Table walker requests started/completed, data/inst
system.cpu.dtb.walker.walkRequestOrigin_Completed::total            0                       # Table walker requests started/completed, data/inst
system.cpu.dtb.walker.walkRequestOrigin::total            0                       # Table walker requests started/completed, data/inst
system.cpu.dtb.walker.walks                         0                       # Table walker walks requested
system.cpu.dtb.write_accesses                       0                       # DTB write accesses
system.cpu.dtb.write_hits                           0                       # DTB write hits
system.cpu.dtb.write_misses                         0                       # DTB write misses
system.cpu.fetch.Branches                      205384                       # Number of branches that fetch encountered
system.cpu.fetch.CacheLines                    169925                       # Number of cache lines fetched
system.cpu.fetch.Cycles                        271674                       # Number of cycles fetch has run and was not squashing or blocked
system.cpu.fetch.IcacheSquashes                  2532                       # Number of outstanding Icache misses that were squashed
system.cpu.fetch.IcacheWaitRetryStallCycles           77                       # Number of stall cycles due to full MSHR
system.cpu.fetch.Insts                        1085178                       # Number of instructions fetch has processed
system.cpu.fetch.MiscStallCycles                    3                       # Number of cycles fetch has spent waiting on interrupts, or bad addresses, or out of MSHRs
system.cpu.fetch.SquashCycles                    9698                       # Number of cycles fetch has spent squashing
system.cpu.fetch.branchRate                  0.287329                       # Number of branch fetches per cycle
system.cpu.fetch.icacheStallCycles             376856                       # Number of cycles fetch is stalled on an Icache miss
system.cpu.fetch.predictedBranches             118488                       # Number of branches that fetch has predicted taken
system.cpu.fetch.rate                        1.518146                       # Number of inst fetches per cycle
system.cpu.fetch.rateDist::samples             653459                       # Number of instructions fetched each cycle (Total)
system.cpu.fetch.rateDist::mean              1.854421                       # Number of instructions fetched each cycle (Total)
system.cpu.fetch.rateDist::stdev             2.875917                       # Number of instructions fetched each cycle (Total)
system.cpu.fetch.rateDist::underflows               0      0.00%      0.00% # Number of instructions fetched each cycle (Total)
system.cpu.fetch.rateDist::0                   408587     62.53%     62.53% # Number of instructions fetched each cycle (Total)
system.cpu.fetch.rateDist::1                    38414      5.88%     68.41% # Number of instructions fetched each cycle (Total)
system.cpu.fetch.rateDist::2                    16564      2.53%     70.94% # Number of instructions fetched each cycle (Total)
system.cpu.fetch.rateDist::3                    19874      3.04%     73.98% # Number of instructions fetched each cycle (Total)
system.cpu.fetch.rateDist::4                    45974      7.04%     81.02% # Number of instructions fetched each cycle (Total)
system.cpu.fetch.rateDist::5                    12526      1.92%     82.93% # Number of instructions fetched each cycle (Total)
system.cpu.fetch.rateDist::6                    26614      4.07%     87.01% # Number of instructions fetched each cycle (Total)
system.cpu.fetch.rateDist::7                     4834      0.74%     87.75% # Number of instructions fetched each cycle (Total)
system.cpu.fetch.rateDist::8                    80072     12.25%    100.00% # Number of instructions fetched each cycle (Total)
system.cpu.fetch.rateDist::overflows                0      0.00%    100.00% # Number of instructions fetched each cycle (Total)
system.cpu.fetch.rateDist::min_value                0                       # Number of instructions fetched each cycle (Total)
system.cpu.fetch.rateDist::max_value                8                       # Number of instructions fetched each cycle (Total)
system.cpu.fetch.rateDist::total               653459                       # Number of instructions fetched each cycle (Total)
system.cpu.idleCycles                           61346                       # Total number of cycles that the CPU has spent unscheduled due to idling
system.cpu.iew.branchMispredicts                 4360                       # Number of branch mispredicts detected at execute
system.cpu.iew.exec_branches                   190799                       # Number of branches executed
system.cpu.iew.exec_nop                           870                       # number of nop insts executed
system.cpu.iew.exec_rate                     1.601814                       # Inst execution rate
system.cpu.iew.exec_refs                       327299                       # number of memory reference insts executed
system.cpu.iew.exec_stores                     153373                       # Number of stores executed
system.cpu.iew.exec_swp                             0                       # number of swp insts executed
system.cpu.iew.iewBlockCycles                    4791                       # Number of cycles IEW is blocking
system.cpu.iew.iewDispLoadInsts                169851                       # Number of dispatched load instructions
system.cpu.iew.iewDispNonSpecInsts               1160                       # Number of dispatched non-speculative instructions
system.cpu.iew.iewDispSquashedInsts              4727                       # Number of squashed instructions skipped by dispatch
system.cpu.iew.iewDispStoreInsts               158750                       # Number of dispatched store instructions
system.cpu.iew.iewDispatchedInsts             1164693                       # Number of instructions dispatched to IQ
system.cpu.iew.iewExecLoadInsts                173926                       # Number of load instructions executed
system.cpu.iew.iewExecSquashedInsts              4973                       # Number of squashed instructions skipped in execute
system.cpu.iew.iewExecutedInsts               1144985                       # Number of executed instructions
system.cpu.iew.iewIQFullEvents                      6                       # Number of times the IQ has become full, causing a stall
system.cpu.iew.iewIdleCycles                        0                       # Number of cycles IEW is idle
system.cpu.iew.iewLSQFullEvents                  3583                       # Number of times the LSQ has become full, causing a stall
system.cpu.iew.iewSquashCycles                   4321                       # Number of cycles IEW is squashing
system.cpu.iew.iewUnblockCycles                  3591                       # Number of cycles IEW is unblocking
system.cpu.iew.lsq.thread0.blockedLoads             0                       # Number of blocked loads due to partial load-store forwarding
system.cpu.iew.lsq.thread0.cacheBlocked            57                       # Number of times an access to memory failed due to the cache being blocked
system.cpu.iew.lsq.thread0.forwLoads            10170                       # Number of loads that had data forwarded from stores
system.cpu.iew.lsq.thread0.ignoredResponses            6                       # Number of memory responses ignored because the instruction is squashed
system.cpu.iew.lsq.thread0.invAddrLoads             0                       # Number of loads ignored due to an invalid address
system.cpu.iew.lsq.thread0.invAddrSwpfs             0                       # Number of software prefetches ignored due to an invalid address
system.cpu.iew.lsq.thread0.memOrderViolation           22                       # Number of memory ordering violations
system.cpu.iew.lsq.thread0.rescheduledLoads         6757                       # Number of loads that were rescheduled
system.cpu.iew.lsq.thread0.squashedLoads         7676                       # Number of loads squashed
system.cpu.iew.lsq.thread0.squashedStores         6248                       # Number of stores squashed
system.cpu.iew.memOrderViolationEvents             22                       # Number of memory order violations
system.cpu.iew.predictedNotTakenIncorrect         3568                       # Number of branches that were predicted not taken incorrectly
system.cpu.iew.predictedTakenIncorrect            792                       # Number of branches that were predicted taken incorrectly
system.cpu.iew.wb_consumers                   1077262                       # num instructions consuming a value
system.cpu.iew.wb_count                       1135401                       # cumulative count of insts written-back
system.cpu.iew.wb_fanout                     0.557237                       # average fanout of values written-back
system.cpu.iew.wb_producers                    600290                       # num instructions producing a value
system.cpu.iew.wb_rate                       1.588407                       # insts written-back per cycle
system.cpu.iew.wb_sent                        1135809                       # cumulative count of insts sent to commit
system.cpu.int_regfile_reads                  1385962                       # number of integer regfile reads
system.cpu.int_regfile_writes                  817015                       # number of integer regfile writes
system.cpu.ipc                               1.398983                       # IPC: Instructions Per Cycle
system.cpu.ipc_total                         1.398983                       # IPC: Total IPC of All Threads
system.cpu.iq.FU_type_0::No_OpClass              1146      0.10%      0.10% # Type of FU issued
system.cpu.iq.FU_type_0::IntAlu                777884     67.64%     67.74% # Type of FU issued
system.cpu.iq.FU_type_0::IntMult                22606      1.97%     69.71% # Type of FU issued
system.cpu.iq.FU_type_0::IntDiv                     3      0.00%     69.71% # Type of FU issued
system.cpu.iq.FU_type_0::FloatAdd                   0      0.00%     69.71% # Type of FU issued
system.cpu.iq.FU_type_0::FloatCmp                1136      0.10%     69.81% # Type of FU issued
system.cpu.iq.FU_type_0::FloatCvt                 568      0.05%     69.86% # Type of FU issued
system.cpu.iq.FU_type_0::FloatMult                  0      0.00%     69.86% # Type of FU issued
system.cpu.iq.FU_type_0::FloatMultAcc               0      0.00%     69.86% # Type of FU issued
system.cpu.iq.FU_type_0::FloatDiv                 568      0.05%     69.91% # Type of FU issued
system.cpu.iq.FU_type_0::FloatMisc               2273      0.20%     70.11% # Type of FU issued
system.cpu.iq.FU_type_0::FloatSqrt                  0      0.00%     70.11% # Type of FU issued
system.cpu.iq.FU_type_0::SimdAdd                 2306      0.20%     70.31% # Type of FU issued
system.cpu.iq.FU_type_0::SimdAddAcc                 0      0.00%     70.31% # Type of FU issued
system.cpu.iq.FU_type_0::SimdAlu                 4577      0.40%     70.70% # Type of FU issued
system.cpu.iq.FU_type_0::SimdCmp                 4580      0.40%     71.10% # Type of FU issued
system.cpu.iq.FU_type_0::SimdCvt                    0      0.00%     71.10% # Type of FU issued
system.cpu.iq.FU_type_0::SimdMisc                3622      0.31%     71.42% # Type of FU issued
system.cpu.iq.FU_type_0::SimdMult                   0      0.00%     71.42% # Type of FU issued
system.cpu.iq.FU_type_0::SimdMultAcc                0      0.00%     71.42% # Type of FU issued
system.cpu.iq.FU_type_0::SimdShift                  0      0.00%     71.42% # Type of FU issued
system.cpu.iq.FU_type_0::SimdShiftAcc               0      0.00%     71.42% # Type of FU issued
system.cpu.iq.FU_type_0::SimdDiv                    0      0.00%     71.42% # Type of FU issued
system.cpu.iq.FU_type_0::SimdSqrt                   0      0.00%     71.42% # Type of FU issued
system.cpu.iq.FU_type_0::SimdFloatAdd               0      0.00%     71.42% # Type of FU issued
system.cpu.iq.FU_type_0::SimdFloatAlu               0      0.00%     71.42% # Type of FU issued
system.cpu.iq.FU_type_0::SimdFloatCmp               0      0.00%     71.42% # Type of FU issued
system.cpu.iq.FU_type_0::SimdFloatCvt               0      0.00%     71.42% # Type of FU issued
system.cpu.iq.FU_type_0::SimdFloatDiv               0      0.00%     71.42% # Type of FU issued
system.cpu.iq.FU_type_0::SimdFloatMisc              0      0.00%     71.42% # Type of FU issued
system.cpu.iq.FU_type_0::SimdFloatMult              0      0.00%     71.42% # Type of FU issued
system.cpu.iq.FU_type_0::SimdFloatMultAcc            0      0.00%     71.42% # Type of FU issued
system.cpu.iq.FU_type_0::SimdFloatSqrt              0      0.00%     71.42% # Type of FU issued
system.cpu.iq.FU_type_0::SimdReduceAdd              0      0.00%     71.42% # Type of FU issued
system.cpu.iq.FU_type_0::SimdReduceAlu              0      0.00%     71.42% # Type of FU issued
system.cpu.iq.FU_type_0::SimdReduceCmp              0      0.00%     71.42% # Type of FU issued
system.cpu.iq.FU_type_0::SimdFloatReduceAdd            0      0.00%     71.42% # Type of FU issued
system.cpu.iq.FU_type_0::SimdFloatReduceCmp            0      0.00%     71.42% # Type of FU issued
system.cpu.iq.FU_type_0::SimdAes                    0      0.00%     71.42% # Type of FU issued
system.cpu.iq.FU_type_0::SimdAesMix                 0      0.00%     71.42% # Type of FU issued
system.cpu.iq.FU_type_0::SimdSha1Hash               0      0.00%     71.42% # Type of FU issued
system.cpu.iq.FU_type_0::SimdSha1Hash2              0      0.00%     71.42% # Type of FU issued
system.cpu.iq.FU_type_0::SimdSha256Hash             0      0.00%     71.42% # Type of FU issued
system.cpu.iq.FU_type_0::SimdSha256Hash2            0      0.00%     71.42% # Type of FU issued
system.cpu.iq.FU_type_0::SimdShaSigma2              0      0.00%     71.42% # Type of FU issued
system.cpu.iq.FU_type_0::SimdShaSigma3              0      0.00%     71.42% # Type of FU issued
system.cpu.iq.FU_type_0::SimdPredAlu                0      0.00%     71.42% # Type of FU issued
system.cpu.iq.FU_type_0::MemRead               174592     15.18%     86.60% # Type of FU issued
system.cpu.iq.FU_type_0::MemWrite              154100     13.40%    100.00% # Type of FU issued
system.cpu.iq.FU_type_0::FloatMemRead               0      0.00%    100.00% # Type of FU issued
system.cpu.iq.FU_type_0::FloatMemWrite              0      0.00%    100.00% # Type of FU issued
system.cpu.iq.FU_type_0::IprAccess                  0      0.00%    100.00% # Type of FU issued
system.cpu.iq.FU_type_0::InstPrefetch               0      0.00%    100.00% # Type of FU issued
system.cpu.iq.FU_type_0::total                1149961                       # Type of FU issued
system.cpu.iq.fp_alu_accesses                       0                       # Number of floating point alu accesses
system.cpu.iq.fp_inst_queue_reads                   0                       # Number of floating instruction queue reads
system.cpu.iq.fp_inst_queue_wakeup_accesses            0                       # Number of floating instruction queue wakeup accesses
system.cpu.iq.fp_inst_queue_writes                  0                       # Number of floating instruction queue writes
system.cpu.iq.fu_busy_cnt                       19982                       # FU busy when requested
system.cpu.iq.fu_busy_rate                   0.017376                       # FU busy rate (busy events/executed inst)
system.cpu.iq.fu_full::No_OpClass                   0      0.00%      0.00% # attempts to use FU when none available
system.cpu.iq.fu_full::IntAlu                    1951      9.76%      9.76% # attempts to use FU when none available
system.cpu.iq.fu_full::IntMult                   5077     25.41%     35.17% # attempts to use FU when none available
system.cpu.iq.fu_full::IntDiv                       0      0.00%     35.17% # attempts to use FU when none available
system.cpu.iq.fu_full::FloatAdd                     0      0.00%     35.17% # attempts to use FU when none available
system.cpu.iq.fu_full::FloatCmp                     0      0.00%     35.17% # attempts to use FU when none available
system.cpu.iq.fu_full::FloatCvt                     0      0.00%     35.17% # attempts to use FU when none available
system.cpu.iq.fu_full::FloatMult                    0      0.00%     35.17% # attempts to use FU when none available
system.cpu.iq.fu_full::FloatMultAcc                 0      0.00%     35.17% # attempts to use FU when none available
system.cpu.iq.fu_full::FloatDiv                     0      0.00%     35.17% # attempts to use FU when none available
system.cpu.iq.fu_full::FloatMisc                    0      0.00%     35.17% # attempts to use FU when none available
system.cpu.iq.fu_full::FloatSqrt                    0      0.00%     35.17% # attempts to use FU when none available
system.cpu.iq.fu_full::SimdAdd                      0      0.00%     35.17% # attempts to use FU when none available
system.cpu.iq.fu_full::SimdAddAcc                   0      0.00%     35.17% # attempts to use FU when none available
system.cpu.iq.fu_full::SimdAlu                      1      0.01%     35.18% # attempts to use FU when none available
system.cpu.iq.fu_full::SimdCmp                      2      0.01%     35.19% # attempts to use FU when none available
system.cpu.iq.fu_full::SimdCvt                      0      0.00%     35.19% # attempts to use FU when none available
system.cpu.iq.fu_full::SimdMisc                     0      0.00%     35.19% # attempts to use FU when none available
system.cpu.iq.fu_full::SimdMult                     0      0.00%     35.19% # attempts to use FU when none available
system.cpu.iq.fu_full::SimdMultAcc                  0      0.00%     35.19% # attempts to use FU when none available
system.cpu.iq.fu_full::SimdShift                    0      0.00%     35.19% # attempts to use FU when none available
system.cpu.iq.fu_full::SimdShiftAcc                 0      0.00%     35.19% # attempts to use FU when none available
system.cpu.iq.fu_full::SimdDiv                      0      0.00%     35.19% # attempts to use FU when none available
system.cpu.iq.fu_full::SimdSqrt                     0      0.00%     35.19% # attempts to use FU when none available
system.cpu.iq.fu_full::SimdFloatAdd                 0      0.00%     35.19% # attempts to use FU when none available
system.cpu.iq.fu_full::SimdFloatAlu                 0      0.00%     35.19% # attempts to use FU when none available
system.cpu.iq.fu_full::SimdFloatCmp                 0      0.00%     35.19% # attempts to use FU when none available
system.cpu.iq.fu_full::SimdFloatCvt                 0      0.00%     35.19% # attempts to use FU when none available
system.cpu.iq.fu_full::SimdFloatDiv                 0      0.00%     35.19% # attempts to use FU when none available
system.cpu.iq.fu_full::SimdFloatMisc                0      0.00%     35.19% # attempts to use FU when none available
system.cpu.iq.fu_full::SimdFloatMult                0      0.00%     35.19% # attempts to use FU when none available
system.cpu.iq.fu_full::SimdFloatMultAcc             0      0.00%     35.19% # attempts to use FU when none available
system.cpu.iq.fu_full::SimdFloatSqrt                0      0.00%     35.19% # attempts to use FU when none available
system.cpu.iq.fu_full::SimdReduceAdd                0      0.00%     35.19% # attempts to use FU when none available
system.cpu.iq.fu_full::SimdReduceAlu                0      0.00%     35.19% # attempts to use FU when none available
system.cpu.iq.fu_full::SimdReduceCmp                0      0.00%     35.19% # attempts to use FU when none available
system.cpu.iq.fu_full::SimdFloatReduceAdd            0      0.00%     35.19% # attempts to use FU when none available
system.cpu.iq.fu_full::SimdFloatReduceCmp            0      0.00%     35.19% # attempts to use FU when none available
system.cpu.iq.fu_full::SimdAes                      0      0.00%     35.19% # attempts to use FU when none available
system.cpu.iq.fu_full::SimdAesMix                   0      0.00%     35.19% # attempts to use FU when none available
system.cpu.iq.fu_full::SimdSha1Hash                 0      0.00%     35.19% # attempts to use FU when none available
system.cpu.iq.fu_full::SimdSha1Hash2                0      0.00%     35.19% # attempts to use FU when none available
system.cpu.iq.fu_full::SimdSha256Hash               0      0.00%     35.19% # attempts to use FU when none available
system.cpu.iq.fu_full::SimdSha256Hash2              0      0.00%     35.19% # attempts to use FU when none available
system.cpu.iq.fu_full::SimdShaSigma2                0      0.00%     35.19% # attempts to use FU when none available
system.cpu.iq.fu_full::SimdShaSigma3                0      0.00%     35.19% # attempts to use FU when none available
system.cpu.iq.fu_full::SimdPredAlu                  0      0.00%     35.19% # attempts to use FU when none available
system.cpu.iq.fu_full::MemRead                   6279     31.42%     66.61% # attempts to use FU when none available
system.cpu.iq.fu_full::MemWrite                  6672     33.39%    100.00% # attempts to use FU when none available
system.cpu.iq.fu_full::FloatMemRead                 0      0.00%    100.00% # attempts to use FU when none available
system.cpu.iq.fu_full::FloatMemWrite                0      0.00%    100.00% # attempts to use FU when none available
system.cpu.iq.fu_full::IprAccess                    0      0.00%    100.00% # attempts to use FU when none available
system.cpu.iq.fu_full::InstPrefetch                 0      0.00%    100.00% # attempts to use FU when none available
system.cpu.iq.int_alu_accesses                1134168                       # Number of integer alu accesses
system.cpu.iq.int_inst_queue_reads            2903684                       # Number of integer instruction queue reads
system.cpu.iq.int_inst_queue_wakeup_accesses      1101640                       # Number of integer instruction queue wakeup accesses
system.cpu.iq.int_inst_queue_writes           1178756                       # Number of integer instruction queue writes
system.cpu.iq.iqInstsAdded                    1162663                       # Number of instructions added to the IQ (excludes non-spec)
system.cpu.iq.iqInstsIssued                   1149961                       # Number of instructions issued
system.cpu.iq.iqNonSpecInstsAdded                1160                       # Number of non-speculative instructions added to the IQ
system.cpu.iq.iqSquashedInstsExamined           50058                       # Number of squashed instructions iterated over during squash; mainly for profiling
system.cpu.iq.iqSquashedInstsIssued                89                       # Number of squashed instructions issued
system.cpu.iq.iqSquashedNonSpecRemoved              9                       # Number of squashed non-spec instructions that were removed
system.cpu.iq.iqSquashedOperandsExamined        46663                       # Number of squashed operands that are examined and possibly removed from graph
system.cpu.iq.issued_per_cycle::samples        653459                       # Number of insts issued each cycle
system.cpu.iq.issued_per_cycle::mean         1.759806                       # Number of insts issued each cycle
system.cpu.iq.issued_per_cycle::stdev        2.016005                       # Number of insts issued each cycle
system.cpu.iq.issued_per_cycle::underflows            0      0.00%      0.00% # Number of insts issued each cycle
system.cpu.iq.issued_per_cycle::0              273613     41.87%     41.87% # Number of insts issued each cycle
system.cpu.iq.issued_per_cycle::1               88590     13.56%     55.43% # Number of insts issued each cycle
system.cpu.iq.issued_per_cycle::2               82722     12.66%     68.09% # Number of insts issued each cycle
system.cpu.iq.issued_per_cycle::3               81506     12.47%     80.56% # Number of insts issued each cycle
system.cpu.iq.issued_per_cycle::4               53668      8.21%     88.77% # Number of insts issued each cycle
system.cpu.iq.issued_per_cycle::5               28504      4.36%     93.14% # Number of insts issued each cycle
system.cpu.iq.issued_per_cycle::6               26951      4.12%     97.26% # Number of insts issued each cycle
system.cpu.iq.issued_per_cycle::7               10729      1.64%     98.90% # Number of insts issued each cycle
system.cpu.iq.issued_per_cycle::8                7176      1.10%    100.00% # Number of insts issued each cycle
system.cpu.iq.issued_per_cycle::overflows            0      0.00%    100.00% # Number of insts issued each cycle
system.cpu.iq.issued_per_cycle::min_value            0                       # Number of insts issued each cycle
system.cpu.iq.issued_per_cycle::max_value            8                       # Number of insts issued each cycle
system.cpu.iq.issued_per_cycle::total          653459                       # Number of insts issued each cycle
system.cpu.iq.rate                           1.608776                       # Inst issue rate
system.cpu.iq.vec_alu_accesses                  34629                       # Number of vector alu accesses
system.cpu.iq.vec_inst_queue_reads              69765                       # Number of vector instruction queue reads
system.cpu.iq.vec_inst_queue_wakeup_accesses        33761                       # Number of vector instruction queue wakeup accesses
system.cpu.iq.vec_inst_queue_writes             35144                       # Number of vector instruction queue writes
system.cpu.itb.accesses                             0                       # DTB accesses
system.cpu.itb.align_faults                         0                       # Number of TLB faults due to alignment restrictions
system.cpu.itb.domain_faults                        0                       # Number of TLB faults due to domain restrictions
system.cpu.itb.flush_entries                        0                       # Number of entries that have been flushed from TLB
system.cpu.itb.flush_tlb                            0                       # Number of times complete TLB was flushed
system.cpu.itb.flush_tlb_asid                       0                       # Number of times TLB was flushed by ASID
system.cpu.itb.flush_tlb_mva                        0                       # Number of times TLB was flushed by MVA
system.cpu.itb.flush_tlb_mva_asid                   0                       # Number of times TLB was flushed by MVA & ASID
system.cpu.itb.hits                                 0                       # DTB hits
system.cpu.itb.inst_accesses                        0                       # ITB inst accesses
system.cpu.itb.inst_hits                            0                       # ITB inst hits
system.cpu.itb.inst_misses                          0                       # ITB inst misses
system.cpu.itb.misses                               0                       # DTB misses
system.cpu.itb.perms_faults                         0                       # Number of TLB faults due to permissions restrictions
system.cpu.itb.prefetch_faults                      0                       # Number of TLB faults due to prefetch
system.cpu.itb.read_accesses                        0                       # DTB read accesses
system.cpu.itb.read_hits                            0                       # DTB read hits
system.cpu.itb.read_misses                          0                       # DTB read misses
system.cpu.itb.stage2_mmu.stage2_tlb.accesses            0                       # DTB accesses
system.cpu.itb.stage2_mmu.stage2_tlb.align_faults            0                       # Number of TLB faults due to alignment restrictions
system.cpu.itb.stage2_mmu.stage2_tlb.domain_faults            0                       # Number of TLB faults due to domain restrictions
system.cpu.itb.stage2_mmu.stage2_tlb.flush_entries            0                       # Number of entries that have been flushed from TLB
system.cpu.itb.stage2_mmu.stage2_tlb.flush_tlb            0                       # Number of times complete TLB was flushed
system.cpu.itb.stage2_mmu.stage2_tlb.flush_tlb_asid            0                       # Number of times TLB was flushed by ASID
system.cpu.itb.stage2_mmu.stage2_tlb.flush_tlb_mva            0                       # Number of times TLB was flushed by MVA
system.cpu.itb.stage2_mmu.stage2_tlb.flush_tlb_mva_asid            0                       # Number of times TLB was flushed by MVA & ASID
system.cpu.itb.stage2_mmu.stage2_tlb.hits            0                       # DTB hits
system.cpu.itb.stage2_mmu.stage2_tlb.inst_accesses            0                       # ITB inst accesses
system.cpu.itb.stage2_mmu.stage2_tlb.inst_hits            0                       # ITB inst hits
system.cpu.itb.stage2_mmu.stage2_tlb.inst_misses            0                       # ITB inst misses
system.cpu.itb.stage2_mmu.stage2_tlb.misses            0                       # DTB misses
system.cpu.itb.stage2_mmu.stage2_tlb.perms_faults            0                       # Number of TLB faults due to permissions restrictions
system.cpu.itb.stage2_mmu.stage2_tlb.prefetch_faults            0                       # Number of TLB faults due to prefetch
system.cpu.itb.stage2_mmu.stage2_tlb.read_accesses            0                       # DTB read accesses
system.cpu.itb.stage2_mmu.stage2_tlb.read_hits            0                       # DTB read hits
system.cpu.itb.stage2_mmu.stage2_tlb.read_misses            0                       # DTB read misses
system.cpu.itb.stage2_mmu.stage2_tlb.walker.walkRequestOrigin_Requested::Data            0                       # Table walker requests started/completed, data/inst
system.cpu.itb.stage2_mmu.stage2_tlb.walker.walkRequestOrigin_Requested::Inst            0                       # Table walker requests started/completed, data/inst
system.cpu.itb.stage2_mmu.stage2_tlb.walker.walkRequestOrigin_Requested::total            0                       # Table walker requests started/completed, data/inst
system.cpu.itb.stage2_mmu.stage2_tlb.walker.walkRequestOrigin_Completed::Data            0                       # Table walker requests started/completed, data/inst
system.cpu.itb.stage2_mmu.stage2_tlb.walker.walkRequestOrigin_Completed::Inst            0                       # Table walker requests started/completed, data/inst
system.cpu.itb.stage2_mmu.stage2_tlb.walker.walkRequestOrigin_Completed::total            0                       # Table walker requests started/completed, data/inst
system.cpu.itb.stage2_mmu.stage2_tlb.walker.walkRequestOrigin::total            0                       # Table walker requests started/completed, data/inst
system.cpu.itb.stage2_mmu.stage2_tlb.walker.walks            0                       # Table walker walks requested
system.cpu.itb.stage2_mmu.stage2_tlb.write_accesses            0                       # DTB write accesses
system.cpu.itb.stage2_mmu.stage2_tlb.write_hits            0                       # DTB write hits
system.cpu.itb.stage2_mmu.stage2_tlb.write_misses            0                       # DTB write misses
system.cpu.itb.walker.walkRequestOrigin_Requested::Data            0                       # Table walker requests started/completed, data/inst
system.cpu.itb.walker.walkRequestOrigin_Requested::Inst            0                       # Table walker requests started/completed, data/inst
system.cpu.itb.walker.walkRequestOrigin_Requested::total            0                       # Table walker requests started/completed, data/inst
system.cpu.itb.walker.walkRequestOrigin_Completed::Data            0                       # Table walker requests started/completed, data/inst
system.cpu.itb.walker.walkRequestOrigin_Completed::Inst            0                       # Table walker requests started/completed, data/inst
system.cpu.itb.walker.walkRequestOrigin_Completed::total            0                       # Table walker requests started/completed, data/inst
system.cpu.itb.walker.walkRequestOrigin::total            0                       # Table walker requests started/completed, data/inst
system.cpu.itb.walker.walks                         0                       # Table walker walks requested
system.cpu.itb.write_accesses                       0                       # DTB write accesses
system.cpu.itb.write_hits                           0                       # DTB write hits
system.cpu.itb.write_misses                         0                       # DTB write misses
system.cpu.memDep0.conflictingLoads              8800                       # Number of conflicting loads.
system.cpu.memDep0.conflictingStores             6241                       # Number of conflicting stores.
system.cpu.memDep0.insertedLoads               169851                       # Number of loads inserted to the mem dependence unit.
system.cpu.memDep0.insertedStores              158750                       # Number of stores inserted to the mem dependence unit.
system.cpu.misc_regfile_reads                  818188                       # number of misc regfile reads
system.cpu.misc_regfile_writes                   7413                       # number of misc regfile writes
system.cpu.numCycles                           714805                       # number of cpu cycles simulated
system.cpu.numWorkItemsCompleted                    0                       # number of work items this cpu completed
system.cpu.numWorkItemsStarted                      0                       # number of work items this cpu started
system.cpu.rename.BlockCycles                    8412                       # Number of cycles rename is blocking
system.cpu.rename.CommittedMaps               1169126                       # Number of HB maps that are committed
system.cpu.rename.IQFullEvents                    572                       # Number of times rename has blocked due to IQ full
system.cpu.rename.IdleCycles                   340439                       # Number of cycles rename is idle
system.cpu.rename.ROBFullEvents                     2                       # Number of times rename has blocked due to ROB full
system.cpu.rename.RenameLookups               1933043                       # Number of register rename lookups that rename has made
system.cpu.rename.RenamedInsts                1182687                       # Number of instructions processed by rename
system.cpu.rename.RenamedOperands             1247927                       # Number of destination operands rename has renamed
system.cpu.rename.RunCycles                    228331                       # Number of cycles rename is running
system.cpu.rename.SQFullEvents                  11942                       # Number of times rename has blocked due to SQ full
system.cpu.rename.SquashCycles                   4321                       # Number of cycles rename is squashing
system.cpu.rename.UnblockCycles                 17750                       # Number of cycles rename is unblocking
system.cpu.rename.UndoneMaps                    78773                       # Number of HB maps that are undone due to squashing
system.cpu.rename.int_rename_lookups          1428236                       # Number of integer rename lookups
system.cpu.rename.serializeStallCycles          54206                       # count of cycles rename stalled for serializing inst
system.cpu.rename.serializingInsts               4085                       # count of serializing insts renamed
system.cpu.rename.skidInsts                     37966                       # count of insts added to the skid buffer
system.cpu.rename.tempSerializingInsts           1162                       # count of temporary serializing insts renamed
system.cpu.rename.vec_rename_lookups            43547                       # Number of vector rename lookups
system.cpu.rob.rob_reads                      1748511                       # The number of ROB reads
system.cpu.rob.rob_writes                     2338032                       # The number of ROB writes
system.cpu.timesIdled                            4856                       # Number of times that the entire CPU went into an idle state and unscheduled itself
system.cpu.vec_regfile_reads                    39512                       # number of vector regfile reads
system.cpu.vec_regfile_writes                   22313                       # number of vector regfile writes
system.cpu.workload.numSyscalls                     7                       # Number of system calls
system.membus.snoop_filter.hit_multi_requests            0                       # Number of requests hitting in the snoop filter with multiple (>1) holders of the requested data.
system.membus.snoop_filter.hit_multi_snoops            0                       # Number of snoops hitting in the snoop filter with multiple (>1) holders of the requested data.
system.membus.snoop_filter.hit_single_requests            0                       # Number of requests hitting in the snoop filter with a single holder of the requested data.
system.membus.snoop_filter.hit_single_snoops            0                       # Number of snoops hitting in the snoop filter with a single holder of the requested data.
system.membus.snoop_filter.tot_requests           813                       # Total number of requests made to the snoop filter.
system.membus.snoop_filter.tot_snoops               0                       # Total number of snoops made to the snoop filter.
system.tol2bus.snoop_filter.hit_multi_requests            1                       # Number of requests hitting in the snoop filter with multiple (>1) holders of the requested data.
system.tol2bus.snoop_filter.hit_multi_snoops            0                       # Number of snoops hitting in the snoop filter with multiple (>1) holders of the requested data.
system.tol2bus.snoop_filter.hit_single_requests         9561                       # Number of requests hitting in the snoop filter with a single holder of the requested data.
system.tol2bus.snoop_filter.hit_single_snoops            0                       # Number of snoops hitting in the snoop filter with a single holder of the requested data.
system.tol2bus.snoop_filter.tot_requests        19668                       # Total number of requests made to the snoop filter.
system.tol2bus.snoop_filter.tot_snoops              0                       # Total number of snoops made to the snoop filter.
system.membus.trans_dist::ReadResp                622                       # Transaction distribution
system.membus.trans_dist::ReadExReq               184                       # Transaction distribution
system.membus.trans_dist::ReadExResp              184                       # Transaction distribution
system.membus.trans_dist::ReadSharedReq           622                       # Transaction distribution
system.membus.trans_dist::InvalidateReq             7                       # Transaction distribution
system.membus.pkt_count_system.l2.mem_side::system.mem_ctrls.port         1619                       # Packet count per connected master and slave (bytes)
system.membus.pkt_count::total                   1619                       # Packet count per connected master and slave (bytes)
system.membus.pkt_size_system.l2.mem_side::system.mem_ctrls.port        51584                       # Cumulative packet size per connected master and slave (bytes)
system.membus.pkt_size::total                   51584                       # Cumulative packet size per connected master and slave (bytes)
system.membus.snoops                                0                       # Total snoops (count)
system.membus.snoopTraffic                          0                       # Total snoop traffic (bytes)
system.membus.snoop_fanout::samples               813                       # Request fanout histogram
system.membus.snoop_fanout::mean                    0                       # Request fanout histogram
system.membus.snoop_fanout::stdev                   0                       # Request fanout histogram
system.membus.snoop_fanout::underflows              0      0.00%      0.00% # Request fanout histogram
system.membus.snoop_fanout::0                     813    100.00%    100.00% # Request fanout histogram
system.membus.snoop_fanout::1                       0      0.00%    100.00% # Request fanout histogram
system.membus.snoop_fanout::overflows               0      0.00%    100.00% # Request fanout histogram
system.membus.snoop_fanout::min_value               0                       # Request fanout histogram
system.membus.snoop_fanout::max_value               0                       # Request fanout histogram
system.membus.snoop_fanout::total                 813                       # Request fanout histogram
system.membus.reqLayer0.occupancy             1006000                       # Layer occupancy (ticks)
system.membus.reqLayer0.utilization               0.3                       # Layer utilization (%)
system.membus.respLayer1.occupancy            4283000                       # Layer occupancy (ticks)
system.membus.respLayer1.utilization              1.2                       # Layer utilization (%)
system.membus.power_state.pwrStateResidencyTicks::UNDEFINED    357402000                       # Cumulative time (in ticks) in various power states
system.tol2bus.trans_dist::ReadResp              9916                       # Transaction distribution
system.tol2bus.trans_dist::WritebackClean         9561                       # Transaction distribution
system.tol2bus.trans_dist::ReadExReq              184                       # Transaction distribution
system.tol2bus.trans_dist::ReadExResp             184                       # Transaction distribution
system.tol2bus.trans_dist::ReadCleanReq          9810                       # Transaction distribution
system.tol2bus.trans_dist::ReadSharedReq          106                       # Transaction distribution
system.tol2bus.trans_dist::InvalidateReq            7                       # Transaction distribution
system.tol2bus.trans_dist::InvalidateResp            7                       # Transaction distribution
system.tol2bus.pkt_count_system.cpu.icache.mem_side::system.l2.cpu_side        29181                       # Packet count per connected master and slave (bytes)
system.tol2bus.pkt_count_system.cpu.dcache.mem_side::system.l2.cpu_side          594                       # Packet count per connected master and slave (bytes)
system.tol2bus.pkt_count::total                 29775                       # Packet count per connected master and slave (bytes)
system.tol2bus.pkt_size_system.cpu.icache.mem_side::system.l2.cpu_side      1239744                       # Cumulative packet size per connected master and slave (bytes)
system.tol2bus.pkt_size_system.cpu.dcache.mem_side::system.l2.cpu_side        18560                       # Cumulative packet size per connected master and slave (bytes)
system.tol2bus.pkt_size::total                1258304                       # Cumulative packet size per connected master and slave (bytes)
system.tol2bus.snoops                               0                       # Total snoops (count)
system.tol2bus.snoopTraffic                         0                       # Total snoop traffic (bytes)
system.tol2bus.snoop_fanout::samples            10107                       # Request fanout histogram
system.tol2bus.snoop_fanout::mean            0.000099                       # Request fanout histogram
system.tol2bus.snoop_fanout::stdev           0.009947                       # Request fanout histogram
system.tol2bus.snoop_fanout::underflows             0      0.00%      0.00% # Request fanout histogram
system.tol2bus.snoop_fanout::0                  10106     99.99%     99.99% # Request fanout histogram
system.tol2bus.snoop_fanout::1                      1      0.01%    100.00% # Request fanout histogram
system.tol2bus.snoop_fanout::2                      0      0.00%    100.00% # Request fanout histogram
system.tol2bus.snoop_fanout::overflows              0      0.00%    100.00% # Request fanout histogram
system.tol2bus.snoop_fanout::min_value              0                       # Request fanout histogram
system.tol2bus.snoop_fanout::max_value              1                       # Request fanout histogram
system.tol2bus.snoop_fanout::total              10107                       # Request fanout histogram
system.tol2bus.reqLayer0.occupancy           19395000                       # Layer occupancy (ticks)
system.tol2bus.reqLayer0.utilization              5.4                       # Layer utilization (%)
system.tol2bus.respLayer1.occupancy            438500                       # Layer occupancy (ticks)
system.tol2bus.respLayer1.utilization             0.1                       # Layer utilization (%)
system.tol2bus.respLayer0.occupancy          14715000                       # Layer occupancy (ticks)
system.tol2bus.respLayer0.utilization             4.1                       # Layer utilization (%)
system.tol2bus.power_state.pwrStateResidencyTicks::UNDEFINED    357402000                       # Cumulative time (in ticks) in various power states
system.voltage_domain.voltage                       1                       # Voltage in Volts
system.clk_domain.clock                          1000                       # Clock period in ticks
system.l2.demand_hits::.cpu.inst                 9294                       # number of demand (read+write) hits
system.l2.demand_hits::total                     9294                       # number of demand (read+write) hits
system.l2.overall_hits::.cpu.inst                9294                       # number of overall hits
system.l2.overall_hits::total                    9294                       # number of overall hits
system.l2.demand_misses::.cpu.inst                516                       # number of demand (read+write) misses
system.l2.demand_misses::.cpu.data                290                       # number of demand (read+write) misses
system.l2.demand_misses::total                    806                       # number of demand (read+write) misses
system.l2.overall_misses::.cpu.inst               516                       # number of overall misses
system.l2.overall_misses::.cpu.data               290                       # number of overall misses
system.l2.overall_misses::total                   806                       # number of overall misses
system.l2.demand_miss_latency::.cpu.inst     40830000                       # number of demand (read+write) miss cycles
system.l2.demand_miss_latency::.cpu.data     24062500                       # number of demand (read+write) miss cycles
system.l2.demand_miss_latency::total         64892500                       # number of demand (read+write) miss cycles
system.l2.overall_miss_latency::.cpu.inst     40830000                       # number of overall miss cycles
system.l2.overall_miss_latency::.cpu.data     24062500                       # number of overall miss cycles
system.l2.overall_miss_latency::total        64892500                       # number of overall miss cycles
system.l2.demand_accesses::.cpu.inst             9810                       # number of demand (read+write) accesses
system.l2.demand_accesses::.cpu.data              290                       # number of demand (read+write) accesses
system.l2.demand_accesses::total                10100                       # number of demand (read+write) accesses
system.l2.overall_accesses::.cpu.inst            9810                       # number of overall (read+write) accesses
system.l2.overall_accesses::.cpu.data             290                       # number of overall (read+write) accesses
system.l2.overall_accesses::total               10100                       # number of overall (read+write) accesses
system.l2.demand_miss_rate::.cpu.inst        0.052599                       # miss rate for demand accesses
system.l2.demand_miss_rate::.cpu.data               1                       # miss rate for demand accesses
system.l2.demand_miss_rate::total            0.079802                       # miss rate for demand accesses
system.l2.overall_miss_rate::.cpu.inst       0.052599                       # miss rate for overall accesses
system.l2.overall_miss_rate::.cpu.data              1                       # miss rate for overall accesses
system.l2.overall_miss_rate::total           0.079802                       # miss rate for overall accesses
system.l2.demand_avg_miss_latency::.cpu.inst 79127.906977                       # average overall miss latency
system.l2.demand_avg_miss_latency::.cpu.data 82974.137931                       # average overall miss latency
system.l2.demand_avg_miss_latency::total 80511.786600                       # average overall miss latency
system.l2.overall_avg_miss_latency::.cpu.inst 79127.906977                       # average overall miss latency
system.l2.overall_avg_miss_latency::.cpu.data 82974.137931                       # average overall miss latency
system.l2.overall_avg_miss_latency::total 80511.786600                       # average overall miss latency
system.l2.blocked_cycles::no_mshrs                  0                       # number of cycles access was blocked
system.l2.blocked_cycles::no_targets                0                       # number of cycles access was blocked
system.l2.blocked::no_mshrs                         0                       # number of cycles access was blocked
system.l2.blocked::no_targets                       0                       # number of cycles access was blocked
system.l2.avg_blocked_cycles::no_mshrs            nan                       # average number of cycles each access was blocked
system.l2.avg_blocked_cycles::no_targets          nan                       # average number of cycles each access was blocked
system.l2.demand_mshr_misses::.cpu.inst           516                       # number of demand (read+write) MSHR misses
system.l2.demand_mshr_misses::.cpu.data           290                       # number of demand (read+write) MSHR misses
system.l2.demand_mshr_misses::total               806                       # number of demand (read+write) MSHR misses
system.l2.overall_mshr_misses::.cpu.inst          516                       # number of overall MSHR misses
system.l2.overall_mshr_misses::.cpu.data          290                       # number of overall MSHR misses
system.l2.overall_mshr_misses::total              806                       # number of overall MSHR misses
system.l2.demand_mshr_miss_latency::.cpu.inst     35670000                       # number of demand (read+write) MSHR miss cycles
system.l2.demand_mshr_miss_latency::.cpu.data     21162500                       # number of demand (read+write) MSHR miss cycles
system.l2.demand_mshr_miss_latency::total     56832500                       # number of demand (read+write) MSHR miss cycles
system.l2.overall_mshr_miss_latency::.cpu.inst     35670000                       # number of overall MSHR miss cycles
system.l2.overall_mshr_miss_latency::.cpu.data     21162500                       # number of overall MSHR miss cycles
system.l2.overall_mshr_miss_latency::total     56832500                       # number of overall MSHR miss cycles
system.l2.demand_mshr_miss_rate::.cpu.inst     0.052599                       # mshr miss rate for demand accesses
system.l2.demand_mshr_miss_rate::.cpu.data            1                       # mshr miss rate for demand accesses
system.l2.demand_mshr_miss_rate::total       0.079802                       # mshr miss rate for demand accesses
system.l2.overall_mshr_miss_rate::.cpu.inst     0.052599                       # mshr miss rate for overall accesses
system.l2.overall_mshr_miss_rate::.cpu.data            1                       # mshr miss rate for overall accesses
system.l2.overall_mshr_miss_rate::total      0.079802                       # mshr miss rate for overall accesses
system.l2.demand_avg_mshr_miss_latency::.cpu.inst 69127.906977                       # average overall mshr miss latency
system.l2.demand_avg_mshr_miss_latency::.cpu.data 72974.137931                       # average overall mshr miss latency
system.l2.demand_avg_mshr_miss_latency::total 70511.786600                       # average overall mshr miss latency
system.l2.overall_avg_mshr_miss_latency::.cpu.inst 69127.906977                       # average overall mshr miss latency
system.l2.overall_avg_mshr_miss_latency::.cpu.data 72974.137931                       # average overall mshr miss latency
system.l2.overall_avg_mshr_miss_latency::total 70511.786600                       # average overall mshr miss latency
system.l2.replacements                              0                       # number of replacements
system.l2.WritebackClean_hits::.writebacks         9560                       # number of WritebackClean hits
system.l2.WritebackClean_hits::total             9560                       # number of WritebackClean hits
system.l2.WritebackClean_accesses::.writebacks         9560                       # number of WritebackClean accesses(hits+misses)
system.l2.WritebackClean_accesses::total         9560                       # number of WritebackClean accesses(hits+misses)
system.l2.ReadExReq_misses::.cpu.data             184                       # number of ReadExReq misses
system.l2.ReadExReq_misses::total                 184                       # number of ReadExReq misses
system.l2.ReadExReq_miss_latency::.cpu.data     14940500                       # number of ReadExReq miss cycles
system.l2.ReadExReq_miss_latency::total      14940500                       # number of ReadExReq miss cycles
system.l2.ReadExReq_accesses::.cpu.data           184                       # number of ReadExReq accesses(hits+misses)
system.l2.ReadExReq_accesses::total               184                       # number of ReadExReq accesses(hits+misses)
system.l2.ReadExReq_miss_rate::.cpu.data            1                       # miss rate for ReadExReq accesses
system.l2.ReadExReq_miss_rate::total                1                       # miss rate for ReadExReq accesses
system.l2.ReadExReq_avg_miss_latency::.cpu.data 81198.369565                       # average ReadExReq miss latency
system.l2.ReadExReq_avg_miss_latency::total 81198.369565                       # average ReadExReq miss latency
system.l2.ReadExReq_mshr_misses::.cpu.data          184                       # number of ReadExReq MSHR misses
system.l2.ReadExReq_mshr_misses::total            184                       # number of ReadExReq MSHR misses
system.l2.ReadExReq_mshr_miss_latency::.cpu.data     13100500                       # number of ReadExReq MSHR miss cycles
system.l2.ReadExReq_mshr_miss_latency::total     13100500                       # number of ReadExReq MSHR miss cycles
system.l2.ReadExReq_mshr_miss_rate::.cpu.data            1                       # mshr miss rate for ReadExReq accesses
system.l2.ReadExReq_mshr_miss_rate::total            1                       # mshr miss rate for ReadExReq accesses
system.l2.ReadExReq_avg_mshr_miss_latency::.cpu.data 71198.369565                       # average ReadExReq mshr miss latency
system.l2.ReadExReq_avg_mshr_miss_latency::total 71198.369565                       # average ReadExReq mshr miss latency
system.l2.ReadCleanReq_hits::.cpu.inst           9294                       # number of ReadCleanReq hits
system.l2.ReadCleanReq_hits::total               9294                       # number of ReadCleanReq hits
system.l2.ReadCleanReq_misses::.cpu.inst          516                       # number of ReadCleanReq misses
system.l2.ReadCleanReq_misses::total              516                       # number of ReadCleanReq misses
system.l2.ReadCleanReq_miss_latency::.cpu.inst     40830000                       # number of ReadCleanReq miss cycles
system.l2.ReadCleanReq_miss_latency::total     40830000                       # number of ReadCleanReq miss cycles
system.l2.ReadCleanReq_accesses::.cpu.inst         9810                       # number of ReadCleanReq accesses(hits+misses)
system.l2.ReadCleanReq_accesses::total           9810                       # number of ReadCleanReq accesses(hits+misses)
system.l2.ReadCleanReq_miss_rate::.cpu.inst     0.052599                       # miss rate for ReadCleanReq accesses
system.l2.ReadCleanReq_miss_rate::total      0.052599                       # miss rate for ReadCleanReq accesses
system.l2.ReadCleanReq_avg_miss_latency::.cpu.inst 79127.906977                       # average ReadCleanReq miss latency
system.l2.ReadCleanReq_avg_miss_latency::total 79127.906977                       # average ReadCleanReq miss latency
system.l2.ReadCleanReq_mshr_misses::.cpu.inst          516                       # number of ReadCleanReq MSHR misses
system.l2.ReadCleanReq_mshr_misses::total          516                       # number of ReadCleanReq MSHR misses
system.l2.ReadCleanReq_mshr_miss_latency::.cpu.inst     35670000                       # number of ReadCleanReq MSHR miss cycles
system.l2.ReadCleanReq_mshr_miss_latency::total     35670000                       # number of ReadCleanReq MSHR miss cycles
system.l2.ReadCleanReq_mshr_miss_rate::.cpu.inst     0.052599                       # mshr miss rate for ReadCleanReq accesses
system.l2.ReadCleanReq_mshr_miss_rate::total     0.052599                       # mshr miss rate for ReadCleanReq accesses
system.l2.ReadCleanReq_avg_mshr_miss_latency::.cpu.inst 69127.906977                       # average ReadCleanReq mshr miss latency
system.l2.ReadCleanReq_avg_mshr_miss_latency::total 69127.906977                       # average ReadCleanReq mshr miss latency
system.l2.ReadSharedReq_misses::.cpu.data          106                       # number of ReadSharedReq misses
system.l2.ReadSharedReq_misses::total             106                       # number of ReadSharedReq misses
system.l2.ReadSharedReq_miss_latency::.cpu.data      9122000                       # number of ReadSharedReq miss cycles
system.l2.ReadSharedReq_miss_latency::total      9122000                       # number of ReadSharedReq miss cycles
system.l2.ReadSharedReq_accesses::.cpu.data          106                       # number of ReadSharedReq accesses(hits+misses)
system.l2.ReadSharedReq_accesses::total           106                       # number of ReadSharedReq accesses(hits+misses)
system.l2.ReadSharedReq_miss_rate::.cpu.data            1                       # miss rate for ReadSharedReq accesses
system.l2.ReadSharedReq_miss_rate::total            1                       # miss rate for ReadSharedReq accesses
system.l2.ReadSharedReq_avg_miss_latency::.cpu.data 86056.603774                       # average ReadSharedReq miss latency
system.l2.ReadSharedReq_avg_miss_latency::total 86056.603774                       # average ReadSharedReq miss latency
[...]
system.cpu.dcache.demand_miss_latency::total     82269461                       # number of demand (read+write) miss cycles
system.cpu.dcache.overall_miss_latency::.cpu.data     82269461                       # number of overall miss cycles
system.cpu.dcache.overall_miss_latency::total     82269461                       # number of overall miss cycles
system.cpu.dcache.demand_accesses::.cpu.data       305940                       # number of demand (read+write) accesses
system.cpu.dcache.demand_accesses::total       305940                       # number of demand (read+write) accesses
system.cpu.dcache.overall_accesses::.cpu.data       307087                       # number of overall (read+write) accesses
system.cpu.dcache.overall_accesses::total       307087                       # number of overall (read+write) accesses
system.cpu.dcache.demand_miss_rate::.cpu.data     0.004132                       # miss rate for demand accesses
system.cpu.dcache.demand_miss_rate::total     0.004132                       # miss rate for demand accesses
system.cpu.dcache.overall_miss_rate::.cpu.data     0.004123                       # miss rate for overall accesses
system.cpu.dcache.overall_miss_rate::total     0.004123                       # miss rate for overall accesses
system.cpu.dcache.demand_avg_miss_latency::.cpu.data 65086.598892                       # average overall miss latency
system.cpu.dcache.demand_avg_miss_latency::total 65086.598892                       # average overall miss latency
system.cpu.dcache.overall_avg_miss_latency::.cpu.data 64983.776461                       # average overall miss latency
system.cpu.dcache.overall_avg_miss_latency::total 64983.776461                       # average overall miss latency
system.cpu.dcache.blocked_cycles::no_mshrs         2258                       # number of cycles access was blocked
system.cpu.dcache.blocked_cycles::no_targets            0                       # number of cycles access was blocked
system.cpu.dcache.blocked::no_mshrs                60                       # number of cycles access was blocked
system.cpu.dcache.blocked::no_targets               0                       # number of cycles access was blocked
system.cpu.dcache.avg_blocked_cycles::no_mshrs    37.633333                       # average number of cycles each access was blocked
system.cpu.dcache.avg_blocked_cycles::no_targets          nan                       # average number of cycles each access was blocked
system.cpu.dcache.demand_mshr_hits::.cpu.data          970                       # number of demand (read+write) MSHR hits
system.cpu.dcache.demand_mshr_hits::total          970                       # number of demand (read+write) MSHR hits
system.cpu.dcache.overall_mshr_hits::.cpu.data          970                       # number of overall MSHR hits
system.cpu.dcache.overall_mshr_hits::total          970                       # number of overall MSHR hits
system.cpu.dcache.demand_mshr_misses::.cpu.data          294                       # number of demand (read+write) MSHR misses
system.cpu.dcache.demand_mshr_misses::total          294                       # number of demand (read+write) MSHR misses
system.cpu.dcache.overall_mshr_misses::.cpu.data          296                       # number of overall MSHR misses
system.cpu.dcache.overall_mshr_misses::total          296                       # number of overall MSHR misses
system.cpu.dcache.demand_mshr_miss_latency::.cpu.data     24474494                       # number of demand (read+write) MSHR miss cycles
system.cpu.dcache.demand_mshr_miss_latency::total     24474494                       # number of demand (read+write) MSHR miss cycles
system.cpu.dcache.overall_mshr_miss_latency::.cpu.data     24633994                       # number of overall MSHR miss cycles
system.cpu.dcache.overall_mshr_miss_latency::total     24633994                       # number of overall MSHR miss cycles
system.cpu.dcache.demand_mshr_miss_rate::.cpu.data     0.000961                       # mshr miss rate for demand accesses
system.cpu.dcache.demand_mshr_miss_rate::total     0.000961                       # mshr miss rate for demand accesses
system.cpu.dcache.overall_mshr_miss_rate::.cpu.data     0.000964                       # mshr miss rate for overall accesses
system.cpu.dcache.overall_mshr_miss_rate::total     0.000964                       # mshr miss rate for overall accesses
system.cpu.dcache.demand_avg_mshr_miss_latency::.cpu.data 83246.578231                       # average overall mshr miss latency
system.cpu.dcache.demand_avg_mshr_miss_latency::total 83246.578231                       # average overall mshr miss latency
system.cpu.dcache.overall_avg_mshr_miss_latency::.cpu.data 83222.952703                       # average overall mshr miss latency
system.cpu.dcache.overall_avg_mshr_miss_latency::total 83222.952703                       # average overall mshr miss latency
system.cpu.dcache.replacements                      0                       # number of replacements
system.cpu.dcache.ReadReq_hits::.cpu.data       154353                       # number of ReadReq hits
system.cpu.dcache.ReadReq_hits::total          154353                       # number of ReadReq hits
system.cpu.dcache.ReadReq_misses::.cpu.data          227                       # number of ReadReq misses
system.cpu.dcache.ReadReq_misses::total           227                       # number of ReadReq misses
system.cpu.dcache.ReadReq_miss_latency::.cpu.data     17147500                       # number of ReadReq miss cycles
system.cpu.dcache.ReadReq_miss_latency::total     17147500                       # number of ReadReq miss cycles
system.cpu.dcache.ReadReq_accesses::.cpu.data       154580                       # number of ReadReq accesses(hits+misses)
system.cpu.dcache.ReadReq_accesses::total       154580                       # number of ReadReq accesses(hits+misses)
system.cpu.dcache.ReadReq_miss_rate::.cpu.data     0.001468                       # miss rate for ReadReq accesses
system.cpu.dcache.ReadReq_miss_rate::total     0.001468                       # miss rate for ReadReq accesses
system.cpu.dcache.ReadReq_avg_miss_latency::.cpu.data 75539.647577                       # average ReadReq miss latency
system.cpu.dcache.ReadReq_avg_miss_latency::total 75539.647577                       # average ReadReq miss latency
system.cpu.dcache.ReadReq_mshr_hits::.cpu.data          124                       # number of ReadReq MSHR hits
system.cpu.dcache.ReadReq_mshr_hits::total          124                       # number of ReadReq MSHR hits
system.cpu.dcache.ReadReq_mshr_misses::.cpu.data          103                       # number of ReadReq MSHR misses
system.cpu.dcache.ReadReq_mshr_misses::total          103                       # number of ReadReq MSHR misses
system.cpu.dcache.ReadReq_mshr_miss_latency::.cpu.data      9039500                       # number of ReadReq MSHR miss cycles
system.cpu.dcache.ReadReq_mshr_miss_latency::total      9039500                       # number of ReadReq MSHR miss cycles
system.cpu.dcache.ReadReq_mshr_miss_rate::.cpu.data     0.000666                       # mshr miss rate for ReadReq accesses
system.cpu.dcache.ReadReq_mshr_miss_rate::total     0.000666                       # mshr miss rate for ReadReq accesses
system.cpu.dcache.ReadReq_avg_mshr_miss_latency::.cpu.data 87762.135922                       # average ReadReq mshr miss latency
system.cpu.dcache.ReadReq_avg_mshr_miss_latency::total 87762.135922                       # average ReadReq mshr miss latency
system.cpu.dcache.WriteReq_hits::.cpu.data       150323                       # number of WriteReq hits
system.cpu.dcache.WriteReq_hits::total         150323                       # number of WriteReq hits
system.cpu.dcache.WriteReq_misses::.cpu.data         1030                       # number of WriteReq misses
system.cpu.dcache.WriteReq_misses::total         1030                       # number of WriteReq misses
system.cpu.dcache.WriteReq_miss_latency::.cpu.data     64899463                       # number of WriteReq miss cycles
system.cpu.dcache.WriteReq_miss_latency::total     64899463                       # number of WriteReq miss cycles
system.cpu.dcache.WriteReq_accesses::.cpu.data       151353                       # number of WriteReq accesses(hits+misses)
system.cpu.dcache.WriteReq_accesses::total       151353                       # number of WriteReq accesses(hits+misses)
system.cpu.dcache.WriteReq_miss_rate::.cpu.data     0.006805                       # miss rate for WriteReq accesses
system.cpu.dcache.WriteReq_miss_rate::total     0.006805                       # miss rate for WriteReq accesses
system.cpu.dcache.WriteReq_avg_miss_latency::.cpu.data 63009.187379                       # average WriteReq miss latency
system.cpu.dcache.WriteReq_avg_miss_latency::total 63009.187379                       # average WriteReq miss latency
system.cpu.dcache.WriteReq_mshr_hits::.cpu.data          846                       # number of WriteReq MSHR hits
system.cpu.dcache.WriteReq_mshr_hits::total          846                       # number of WriteReq MSHR hits
system.cpu.dcache.WriteReq_mshr_misses::.cpu.data          184                       # number of WriteReq MSHR misses
system.cpu.dcache.WriteReq_mshr_misses::total          184                       # number of WriteReq MSHR misses
system.cpu.dcache.WriteReq_mshr_miss_latency::.cpu.data     15219496                       # number of WriteReq MSHR miss cycles
system.cpu.dcache.WriteReq_mshr_miss_latency::total     15219496                       # number of WriteReq MSHR miss cycles
system.cpu.dcache.WriteReq_mshr_miss_rate::.cpu.data     0.001216                       # mshr miss rate for WriteReq accesses
system.cpu.dcache.WriteReq_mshr_miss_rate::total     0.001216                       # mshr miss rate for WriteReq accesses
system.cpu.dcache.WriteReq_avg_mshr_miss_latency::.cpu.data 82714.652174                       # average WriteReq mshr miss latency
system.cpu.dcache.WriteReq_avg_mshr_miss_latency::total 82714.652174                       # average WriteReq mshr miss latency
system.cpu.dcache.SoftPFReq_hits::.cpu.data         1145                       # number of SoftPFReq hits
system.cpu.dcache.SoftPFReq_hits::total          1145                       # number of SoftPFReq hits
system.cpu.dcache.SoftPFReq_misses::.cpu.data            2                       # number of SoftPFReq misses
system.cpu.dcache.SoftPFReq_misses::total            2                       # number of SoftPFReq misses
system.cpu.dcache.SoftPFReq_accesses::.cpu.data         1147                       # number of SoftPFReq accesses(hits+misses)
system.cpu.dcache.SoftPFReq_accesses::total         1147                       # number of SoftPFReq accesses(hits+misses)
system.cpu.dcache.SoftPFReq_miss_rate::.cpu.data     0.001744                       # miss rate for SoftPFReq accesses
system.cpu.dcache.SoftPFReq_miss_rate::total     0.001744                       # miss rate for SoftPFReq accesses
system.cpu.dcache.SoftPFReq_mshr_misses::.cpu.data            2                       # number of SoftPFReq MSHR misses
system.cpu.dcache.SoftPFReq_mshr_misses::total            2                       # number of SoftPFReq MSHR misses
system.cpu.dcache.SoftPFReq_mshr_miss_latency::.cpu.data       159500                       # number of SoftPFReq MSHR miss cycles
system.cpu.dcache.SoftPFReq_mshr_miss_latency::total       159500                       # number of SoftPFReq MSHR miss cycles
system.cpu.dcache.SoftPFReq_mshr_miss_rate::.cpu.data     0.001744                       # mshr miss rate for SoftPFReq accesses
system.cpu.dcache.SoftPFReq_mshr_miss_rate::total     0.001744                       # mshr miss rate for SoftPFReq accesses
system.cpu.dcache.SoftPFReq_avg_mshr_miss_latency::.cpu.data        79750                       # average SoftPFReq mshr miss latency
system.cpu.dcache.SoftPFReq_avg_mshr_miss_latency::total        79750                       # average SoftPFReq mshr miss latency
system.cpu.dcache.WriteLineReq_misses::.cpu.data            7                       # number of WriteLineReq misses
system.cpu.dcache.WriteLineReq_misses::total            7                       # number of WriteLineReq misses
system.cpu.dcache.WriteLineReq_miss_latency::.cpu.data       222498                       # number of WriteLineReq miss cycles
system.cpu.dcache.WriteLineReq_miss_latency::total       222498                       # number of WriteLineReq miss cycles
system.cpu.dcache.WriteLineReq_accesses::.cpu.data            7                       # number of WriteLineReq accesses(hits+misses)
system.cpu.dcache.WriteLineReq_accesses::total            7                       # number of WriteLineReq accesses(hits+misses)
system.cpu.dcache.WriteLineReq_miss_rate::.cpu.data            1                       # miss rate for WriteLineReq accesses
system.cpu.dcache.WriteLineReq_miss_rate::total            1                       # miss rate for WriteLineReq accesses
system.cpu.dcache.WriteLineReq_avg_miss_latency::.cpu.data 31785.428571                       # average WriteLineReq miss latency
system.cpu.dcache.WriteLineReq_avg_miss_latency::total 31785.428571                       # average WriteLineReq miss latency
system.cpu.dcache.WriteLineReq_mshr_misses::.cpu.data            7                       # number of WriteLineReq MSHR misses
system.cpu.dcache.WriteLineReq_mshr_misses::total            7                       # number of WriteLineReq MSHR misses
system.cpu.dcache.WriteLineReq_mshr_miss_latency::.cpu.data       215498                       # number of WriteLineReq MSHR miss cycles
system.cpu.dcache.WriteLineReq_mshr_miss_latency::total       215498                       # number of WriteLineReq MSHR miss cycles
system.cpu.dcache.WriteLineReq_mshr_miss_rate::.cpu.data            1                       # mshr miss rate for WriteLineReq accesses
system.cpu.dcache.WriteLineReq_mshr_miss_rate::total            1                       # mshr miss rate for WriteLineReq accesses
system.cpu.dcache.WriteLineReq_avg_mshr_miss_latency::.cpu.data 30785.428571                       # average WriteLineReq mshr miss latency
system.cpu.dcache.WriteLineReq_avg_mshr_miss_latency::total 30785.428571                       # average WriteLineReq mshr miss latency
system.cpu.dcache.LoadLockedReq_hits::.cpu.data         1142                       # number of LoadLockedReq hits
system.cpu.dcache.LoadLockedReq_hits::total         1142                       # number of LoadLockedReq hits
system.cpu.dcache.LoadLockedReq_misses::.cpu.data            2                       # number of LoadLockedReq misses
system.cpu.dcache.LoadLockedReq_misses::total            2                       # number of LoadLockedReq misses
system.cpu.dcache.LoadLockedReq_miss_latency::.cpu.data       173000                       # number of LoadLockedReq miss cycles
system.cpu.dcache.LoadLockedReq_miss_latency::total       173000                       # number of LoadLockedReq miss cycles
system.cpu.dcache.LoadLockedReq_accesses::.cpu.data         1144                       # number of LoadLockedReq accesses(hits+misses)
system.cpu.dcache.LoadLockedReq_accesses::total         1144                       # number of LoadLockedReq accesses(hits+misses)
system.cpu.dcache.LoadLockedReq_miss_rate::.cpu.data     0.001748                       # miss rate for LoadLockedReq accesses
system.cpu.dcache.LoadLockedReq_miss_rate::total     0.001748                       # miss rate for LoadLockedReq accesses
system.cpu.dcache.LoadLockedReq_avg_miss_latency::.cpu.data        86500                       # average LoadLockedReq miss latency
system.cpu.dcache.LoadLockedReq_avg_miss_latency::total        86500                       # average LoadLockedReq miss latency
system.cpu.dcache.LoadLockedReq_mshr_hits::.cpu.data            1                       # number of LoadLockedReq MSHR hits
system.cpu.dcache.LoadLockedReq_mshr_hits::total            1                       # number of LoadLockedReq MSHR hits
system.cpu.dcache.LoadLockedReq_mshr_misses::.cpu.data            1                       # number of LoadLockedReq MSHR misses
system.cpu.dcache.LoadLockedReq_mshr_misses::total            1                       # number of LoadLockedReq MSHR misses
system.cpu.dcache.LoadLockedReq_mshr_miss_latency::.cpu.data        85500                       # number of LoadLockedReq MSHR miss cycles
system.cpu.dcache.LoadLockedReq_mshr_miss_latency::total        85500                       # number of LoadLockedReq MSHR miss cycles
system.cpu.dcache.LoadLockedReq_mshr_miss_rate::.cpu.data     0.000874                       # mshr miss rate for LoadLockedReq accesses
system.cpu.dcache.LoadLockedReq_mshr_miss_rate::total     0.000874                       # mshr miss rate for LoadLockedReq accesses
system.cpu.dcache.LoadLockedReq_avg_mshr_miss_latency::.cpu.data        85500                       # average LoadLockedReq mshr miss latency
system.cpu.dcache.LoadLockedReq_avg_mshr_miss_latency::total        85500                       # average LoadLockedReq mshr miss latency
system.cpu.dcache.StoreCondReq_hits::.cpu.data         1143                       # number of StoreCondReq hits
system.cpu.dcache.StoreCondReq_hits::total         1143                       # number of StoreCondReq hits
system.cpu.dcache.StoreCondReq_accesses::.cpu.data         1143                       # number of StoreCondReq accesses(hits+misses)
system.cpu.dcache.StoreCondReq_accesses::total         1143                       # number of StoreCondReq accesses(hits+misses)
system.cpu.dcache.power_state.pwrStateResidencyTicks::UNDEFINED    357402000                       # Cumulative time (in ticks) in various power states
system.cpu.dcache.tags.tagsinuse           246.729357                       # Cycle average of tags in use
system.cpu.dcache.tags.total_refs              308403                       # Total number of references to valid blocks.
system.cpu.dcache.tags.sampled_refs               297                       # Sample count of references to valid blocks.
system.cpu.dcache.tags.avg_refs           1038.393939                       # Average number of references to valid blocks.
system.cpu.dcache.tags.warmup_cycle            176500                       # Cycle when the warmup percentage was hit.
system.cpu.dcache.tags.occ_blocks::.cpu.data   246.729357                       # Average occupied blocks per requestor
system.cpu.dcache.tags.occ_percent::.cpu.data     0.240947                       # Average percentage of cache occupancy
system.cpu.dcache.tags.occ_percent::total     0.240947                       # Average percentage of cache occupancy
system.cpu.dcache.tags.occ_task_id_blocks::1024          297                       # Occupied blocks per task id
system.cpu.dcache.tags.age_task_id_blocks_1024::0            2                       # Occupied blocks per task id
system.cpu.dcache.tags.age_task_id_blocks_1024::1           22                       # Occupied blocks per task id
system.cpu.dcache.tags.age_task_id_blocks_1024::2          273                       # Occupied blocks per task id
system.cpu.dcache.tags.occ_task_id_percent::1024     0.290039                       # Percentage of cache occupancy per task id
system.cpu.dcache.tags.tag_accesses            619045                       # Number of tag accesses
system.cpu.dcache.tags.data_accesses           619045                       # Number of data accesses
system.cpu.dcache.tags.power_state.pwrStateResidencyTicks::UNDEFINED    357402000                       # Cumulative time (in ticks) in various power states
system.cpu.power_state.pwrStateResidencyTicks::ON    357402000                       # Cumulative time (in ticks) in various power states

---------- End Simulation Statistics   ----------
