
---------- Begin Simulation Statistics ----------
final_tick                                  545040000                       # Number of ticks from beginning of simulation (restored from checkpoints and never reset)
host_inst_rate                                  92304                       # Simulator instruction rate (inst/s)
host_mem_usage                                 870888                       # Number of bytes of host memory used
host_op_rate                                   108692                       # Simulator op (including micro ops) rate (op/s)
host_seconds                                    10.83                       # Real time elapsed on the host
host_tick_rate                               50308641                       # Simulator tick rate (ticks/s)
sim_freq                                 1000000000000                       # Frequency of simulated ticks
sim_insts                                     1000002                       # Number of instructions simulated
sim_ops                                       1177555                       # Number of ops (including micro ops) simulated
sim_seconds                                  0.000545                       # Number of seconds simulated
sim_ticks                                   545040000                       # Number of ticks simulated
system.cpu.branchPred.BTBCorrect                    0                       # Number of correct BTB predictions (this stat may not work properly.
system.cpu.branchPred.BTBHitPct             96.394880                       # BTB Hit Percentage
system.cpu.branchPred.BTBHits                  109948                       # Number of BTB hits
system.cpu.branchPred.BTBLookups               114060                       # Number of BTB lookups
system.cpu.branchPred.RASInCorrect                  7                       # Number of incorrect RAS predictions.
system.cpu.branchPred.condIncorrect              7195                       # Number of conditional branches incorrect
system.cpu.branchPred.condPredicted            204219                       # Number of conditional branches predicted
system.cpu.branchPred.indirectHits               1179                       # Number of indirect target hits.
system.cpu.branchPred.indirectLookups            2010                       # Number of indirect predictor lookups.
system.cpu.branchPred.indirectMisses              831                       # Number of indirect misses.
system.cpu.branchPred.lookups                  279210                       # Number of BP lookups
system.cpu.branchPred.usedRAS                   29293                       # Number of times the RAS was used to get a target.
system.cpu.branchPredindirectMispredicted          304                       # Number of mispredicted indirect branches.
system.cpu.cc_regfile_reads                    382974                       # number of cc regfile reads
system.cpu.cc_regfile_writes                   376299                       # number of cc regfile writes
system.cpu.commit.amos                              0                       # Number of atomic instructions committed
system.cpu.commit.branchMispredicts              5775                       # The number of times a branch was mispredicted
system.cpu.commit.branches                     236171                       # Number of branches committed
system.cpu.commit.bw_lim_events                 66335                       # number cycles where commit BW limit reached
system.cpu.commit.commitNonSpecStalls              75                       # The number of times commit has been forced to stall to communicate backwards
system.cpu.commit.commitSquashedInsts          104795                       # The number of squashed insts skipped by commit
system.cpu.commit.committedInsts              1000964                       # Number of instructions committed
system.cpu.commit.committedOps                1178517                       # Number of ops (including micro ops) committed
system.cpu.commit.committed_per_cycle::samples       909334                       # Number of insts commited each cycle
system.cpu.commit.committed_per_cycle::mean     1.296022                       # Number of insts commited each cycle
system.cpu.commit.committed_per_cycle::stdev     2.322227                       # Number of insts commited each cycle
system.cpu.commit.committed_per_cycle::underflows            0      0.00%      0.00% # Number of insts commited each cycle
system.cpu.commit.committed_per_cycle::0       549697     60.45%     60.45% # Number of insts commited each cycle
system.cpu.commit.committed_per_cycle::1       145048     15.95%     76.40% # Number of insts commited each cycle
system.cpu.commit.committed_per_cycle::2        53978      5.94%     82.34% # Number of insts commited each cycle
system.cpu.commit.committed_per_cycle::3        44428      4.89%     87.22% # Number of insts commited each cycle
system.cpu.commit.committed_per_cycle::4        14771      1.62%     88.85% # Number of insts commited each cycle
system.cpu.commit.committed_per_cycle::5        14891      1.64%     90.49% # Number of insts commited each cycle
system.cpu.commit.committed_per_cycle::6        13292      1.46%     91.95% # Number of insts commited each cycle
system.cpu.commit.committed_per_cycle::7         6894      0.76%     92.71% # Number of insts commited each cycle
system.cpu.commit.committed_per_cycle::8        66335      7.29%    100.00% # Number of insts commited each cycle
system.cpu.commit.committed_per_cycle::overflows            0      0.00%    100.00% # Number of insts commited each cycle
system.cpu.commit.committed_per_cycle::min_value            0                       # Number of insts commited each cycle
system.cpu.commit.committed_per_cycle::max_value            8                       # Number of insts commited each cycle
system.cpu.commit.committed_per_cycle::total       909334                       # Number of insts commited each cycle
system.cpu.commit.fp_insts                          0                       # Number of committed floating point instructions.
system.cpu.commit.function_calls                25599                       # Number of function calls committed.
system.cpu.commit.int_insts                   1058462                       # Number of committed integer instructions.
system.cpu.commit.loads                        219653                       # Number of loads committed
system.cpu.commit.membars                          58                       # Number of memory barriers committed
system.cpu.commit.op_class_0::No_OpClass           85      0.01%      0.01% # Class of committed instruction
system.cpu.commit.op_class_0::IntAlu           803955     68.22%     68.22% # Class of committed instruction
system.cpu.commit.op_class_0::IntMult              43      0.00%     68.23% # Class of committed instruction
system.cpu.commit.op_class_0::IntDiv                8      0.00%     68.23% # Class of committed instruction
system.cpu.commit.op_class_0::FloatAdd              3      0.00%     68.23% # Class of committed instruction
system.cpu.commit.op_class_0::FloatCmp              6      0.00%     68.23% # Class of committed instruction
system.cpu.commit.op_class_0::FloatCvt             24      0.00%     68.23% # Class of committed instruction
system.cpu.commit.op_class_0::FloatMult             1      0.00%     68.23% # Class of committed instruction
system.cpu.commit.op_class_0::FloatMultAcc            0      0.00%     68.23% # Class of committed instruction
system.cpu.commit.op_class_0::FloatDiv              1      0.00%     68.23% # Class of committed instruction
system.cpu.commit.op_class_0::FloatMisc            32      0.00%     68.23% # Class of committed instruction
system.cpu.commit.op_class_0::FloatSqrt             0      0.00%     68.23% # Class of committed instruction
system.cpu.commit.op_class_0::SimdAdd             211      0.02%     68.25% # Class of committed instruction
system.cpu.commit.op_class_0::SimdAddAcc            0      0.00%     68.25% # Class of committed instruction
system.cpu.commit.op_class_0::SimdAlu             346      0.03%     68.28% # Class of committed instruction
system.cpu.commit.op_class_0::SimdCmp             340      0.03%     68.31% # Class of committed instruction
system.cpu.commit.op_class_0::SimdCvt               4      0.00%     68.31% # Class of committed instruction
system.cpu.commit.op_class_0::SimdMisc            252      0.02%     68.33% # Class of committed instruction
system.cpu.commit.op_class_0::SimdMult              0      0.00%     68.33% # Class of committed instruction
system.cpu.commit.op_class_0::SimdMultAcc            0      0.00%     68.33% # Class of committed instruction
system.cpu.commit.op_class_0::SimdShift             0      0.00%     68.33% # Class of committed instruction
system.cpu.commit.op_class_0::SimdShiftAcc            0      0.00%     68.33% # Class of committed instruction
system.cpu.commit.op_class_0::SimdDiv               0      0.00%     68.33% # Class of committed instruction
system.cpu.commit.op_class_0::SimdSqrt              0      0.00%     68.33% # Class of committed instruction
system.cpu.commit.op_class_0::SimdFloatAdd            0      0.00%     68.33% # Class of committed instruction
system.cpu.commit.op_class_0::SimdFloatAlu            0      0.00%     68.33% # Class of committed instruction
system.cpu.commit.op_class_0::SimdFloatCmp            0      0.00%     68.33% # Class of committed instruction
system.cpu.commit.op_class_0::SimdFloatCvt            0      0.00%     68.33% # Class of committed instruction
system.cpu.commit.op_class_0::SimdFloatDiv            0      0.00%     68.33% # Class of committed instruction
system.cpu.commit.op_class_0::SimdFloatMisc            0      0.00%     68.33% # Class of committed instruction
system.cpu.commit.op_class_0::SimdFloatMult            0      0.00%     68.33% # Class of committed instruction
system.cpu.commit.op_class_0::SimdFloatMultAcc            0      0.00%     68.33% # Class of committed instruction
system.cpu.commit.op_class_0::SimdFloatSqrt            0      0.00%     68.33% # Class of committed instruction
system.cpu.commit.op_class_0::SimdReduceAdd            0      0.00%     68.33% # Class of committed instruction
system.cpu.commit.op_class_0::SimdReduceAlu            0      0.00%     68.33% # Class of committed instruction
system.cpu.commit.op_class_0::SimdReduceCmp            0      0.00%     68.33% # Class of committed instruction
system.cpu.commit.op_class_0::SimdFloatReduceAdd            0      0.00%     68.33% # Class of committed instruction
system.cpu.commit.op_class_0::SimdFloatReduceCmp            0      0.00%     68.33% # Class of committed instruction
system.cpu.commit.op_class_0::SimdAes               0      0.00%     68.33% # Class of committed instruction
system.cpu.commit.op_class_0::SimdAesMix            0      0.00%     68.33% # Class of committed instruction
system.cpu.commit.op_class_0::SimdSha1Hash            0      0.00%     68.33% # Class of committed instruction
system.cpu.commit.op_class_0::SimdSha1Hash2            0      0.00%     68.33% # Class of committed instruction
system.cpu.commit.op_class_0::SimdSha256Hash            0      0.00%     68.33% # Class of committed instruction
system.cpu.commit.op_class_0::SimdSha256Hash2            0      0.00%     68.33% # Class of committed instruction
system.cpu.commit.op_class_0::SimdShaSigma2            0      0.00%     68.33% # Class of committed instruction
system.cpu.commit.op_class_0::SimdShaSigma3            0      0.00%     68.33% # Class of committed instruction
system.cpu.commit.op_class_0::SimdPredAlu            0      0.00%     68.33% # Class of committed instruction
system.cpu.commit.op_class_0::MemRead          219653     18.64%     86.97% # Class of committed instruction
system.cpu.commit.op_class_0::MemWrite         153553     13.03%    100.00% # Class of committed instruction
system.cpu.commit.op_class_0::FloatMemRead            0      0.00%    100.00% # Class of committed instruction
system.cpu.commit.op_class_0::FloatMemWrite            0      0.00%    100.00% # Class of committed instruction
system.cpu.commit.op_class_0::IprAccess             0      0.00%    100.00% # Class of committed instruction
system.cpu.commit.op_class_0::InstPrefetch            0      0.00%    100.00% # Class of committed instruction
system.cpu.commit.op_class_0::total           1178517                       # Class of committed instruction
system.cpu.commit.refs                         373206                       # Number of memory references committed
system.cpu.commit.swp_count                         0                       # Number of s/w prefetches committed
system.cpu.commit.vec_insts                      2565                       # Number of committed Vector instructions.
system.cpu.committedInsts                     1000002                       # Number of Instructions Simulated
system.cpu.committedOps                       1177555                       # Number of Ops (including micro ops) Simulated
system.cpu.cpi                               1.090079                       # CPI: Cycles Per Instruction
system.cpu.cpi_total                         1.090079                       # CPI: Total CPI of All Threads
system.cpu.decode.BlockedCycles                317898                       # Number of cycles decode is blocked
system.cpu.decode.BranchMispred                  1448                       # Number of times decode detected a branch misprediction
system.cpu.decode.BranchResolved               107584                       # Number of times decode resolved a branch
system.cpu.decode.DecodedInsts                1322810                       # Number of instructions handled by decode
system.cpu.decode.IdleCycles                   374570                       # Number of cycles decode is idle
system.cpu.decode.RunCycles                    198960                       # Number of cycles decode is running
system.cpu.decode.SquashCycles                   5912                       # Number of cycles decode is squashing
system.cpu.decode.SquashedInsts                  4741                       # Number of squashed instructions handled by decode
system.cpu.decode.UnblockCycles                 28356                       # Number of cycles decode is unblocking
system.cpu.dtb.accesses                             0                       # DTB accesses
system.cpu.dtb.align_faults                         0                       # Number of TLB faults due to alignment restrictions
system.cpu.dtb.domain_faults                        0                       # Number of TLB faults due to domain restrictions
system.cpu.dtb.flush_entries                        0                       # Number of entries that have been flushed from TLB
system.cpu.dtb.flush_tlb                            0                       # Number of times complete TLB was flushed
system.cpu.dtb.flush_tlb_asid                       0                       # Number of times TLB was flushed by ASID
system.cpu.dtb.flush_tlb_mva                        0                       # Number of times TLB was flushed by MVA
system.cpu.dtb.flush_tlb_mva_asid                   0                       # Number of times TLB was flushed by MVA & ASID
system.cpu.dtb.hits                                 0                       # DTB hits
system.cpu.dtb.inst_accesses                        0                       # ITB inst accesses
system.cpu.dtb.inst_hits                            0                       # ITB inst hits
system.cpu.dtb.inst_misses                          0                       # ITB inst misses
system.cpu.dtb.misses                               0                       # DTB misses
system.cpu.dtb.perms_faults                         0                       # Number of TLB faults due to permissions restrictions
system.cpu.dtb.prefetch_faults                      0                       # Number of TLB faults due to prefetch
system.cpu.dtb.read_accesses                        0                       # DTB read accesses
system.cpu.dtb.read_hits                            0                       # DTB read hits
system.cpu.dtb.read_misses                          0                       # DTB read misses
system.cpu.dtb.stage2_mmu.stage2_tlb.accesses            0                       # DTB accesses
system.cpu.dtb.stage2_mmu.stage2_tlb.align_faults            0                       # Number of TLB faults due to alignment restrictions
system.cpu.dtb.stage2_mmu.stage2_tlb.domain_faults            0                       # Number of TLB faults due to domain restrictions
system.cpu.dtb.stage2_mmu.stage2_tlb.flush_entries            0                       # Number of entries that have been flushed from TLB
system.cpu.dtb.stage2_mmu.stage2_tlb.flush_tlb            0                       # Number of times complete TLB was flushed
system.cpu.dtb.stage2_mmu.stage2_tlb.flush_tlb_asid            0                       # Number of times TLB was flushed by ASID
system.cpu.dtb.stage2_mmu.stage2_tlb.flush_tlb_mva            0                       # Number of times TLB was flushed by MVA
system.cpu.dtb.stage2_mmu.stage2_tlb.flush_tlb_mva_asid            0                       # Number of times TLB was flushed by MVA & ASID
system.cpu.dtb.stage2_mmu.stage2_tlb.hits            0                       # DTB hits
system.cpu.dtb.stage2_mmu.stage2_tlb.inst_accesses            0                       # ITB inst accesses
system.cpu.dtb.stage2_mmu.stage2_tlb.inst_hits            0                       # ITB inst hits
system.cpu.dtb.stage2_mmu.stage2_tlb.inst_misses            0                       # ITB inst misses
system.cpu.dtb.stage2_mmu.stage2_tlb.misses            0                       # DTB misses
system.cpu.dtb.stage2_mmu.stage2_tlb.perms_faults            0                       # Number of TLB faults due to permissions restrictions
system.cpu.dtb.stage2_mmu.stage2_tlb.prefetch_faults            0                       # Number of TLB faults due to prefetch
system.cpu.dtb.stage2_mmu.stage2_tlb.read_accesses            0                       # DTB read accesses
system.cpu.dtb.stage2_mmu.stage2_tlb.read_hits            0                       # DTB read hits
system.cpu.dtb.stage2_mmu.stage2_tlb.read_misses            0                       # DTB read misses
system.cpu.dtb.stage2_mmu.stage2_tlb.walker.walkRequestOrigin_Requested::Data            0                       # Table walker requests started/completed, data/inst
system.cpu.dtb.stage2_mmu.stage2_tlb.walker.walkRequestOrigin_Requested::Inst            0                       # Table walker requests started/completed, data/inst
system.cpu.dtb.stage2_mmu.stage2_tlb.walker.walkRequestOrigin_Requested::total            0                       # Table walker requests started/completed, data/inst
system.cpu.dtb.stage2_mmu.stage2_tlb.walker.walkRequestOrigin_Completed::Data            0                       # Table walker requests started/completed, data/inst
system.cpu.dtb.stage2_mmu.stage2_tlb.walker.walkRequestOrigin_Completed::Inst            0                       # Table walker requests started/completed, data/inst
system.cpu.dtb.stage2_mmu.stage2_tlb.walker.walkRequestOrigin_Completed::total            0                       # Table walker requests started/completed, data/inst
system.cpu.dtb.stage2_mmu.stage2_tlb.walker.walkRequestOrigin::total            0                       # Table walker requests started/completed, data/inst
system.cpu.dtb.stage2_mmu.stage2_tlb.walker.walks            0                       # Table walker walks requested
system.cpu.dtb.stage2_mmu.stage2_tlb.write_accesses            0                       # DTB write accesses
system.cpu.dtb.stage2_mmu.stage2_tlb.write_hits            0                       # DTB write hits
system.cpu.dtb.stage2_mmu.stage2_tlb.write_misses            0                       # DTB write misses
system.cpu.dtb.walker.walkRequestOrigin_Requested::Data            0                       # Table walker requests started/completed, data/inst
system.cpu.dtb.walker.walkRequestOrigin_Requested::Inst            0                       # Table walker requests started/completed, data/inst
system.cpu.dtb.walker.walkRequestOrigin_Requested::total            0                       # Table walker requests started/completed, data/inst
system.cpu.dtb.walker.walkRequestOrigin_Completed::Data            0                       # Table walker requests started/completed, data/inst
system.cpu.dtb.walker.walkRequestOrigin_Completed::Inst            0                       # Table walker requests started/completed, data/inst
system.cpu.dtb.walker.walkRequestOrigin_Completed::total            0                       # Table walker requests started/completed, data/inst
system.cpu.dtb.walker.walkRequestOrigin::total            0                       # Table walker requests started/completed, data/inst
system.cpu.dtb.walker.walks                         0                       # Table walker walks requested
system.cpu.dtb.write_accesses                       0                       # DTB write accesses
system.cpu.dtb.write_hits                           0                       # DTB write hits
system.cpu.dtb.write_misses                         0                       # DTB write misses
system.cpu.fetch.Branches                      279210                       # Number of branches that fetch encountered
system.cpu.fetch.CacheLines                    180747                       # Number of cache lines fetched
system.cpu.fetch.Cycles                        460597                       # Number of cycles fetch has run and was not squashing or blocked
system.cpu.fetch.IcacheSquashes                  4103                       # Number of outstanding Icache misses that were squashed
system.cpu.fetch.IcacheWaitRetryStallCycles          137                       # Number of stall cycles due to full MSHR
system.cpu.fetch.Insts                        1173303                       # Number of instructions fetch has processed
system.cpu.fetch.MiscStallCycles                   23                       # Number of cycles fetch has spent waiting on interrupts, or bad addresses, or out of MSHRs
system.cpu.fetch.SquashCycles                   14664                       # Number of cycles fetch has spent squashing
system.cpu.fetch.branchRate                  0.256137                       # Number of branch fetches per cycle
system.cpu.fetch.icacheStallCycles             457607                       # Number of cycles fetch is stalled on an Icache miss
system.cpu.fetch.predictedBranches             140420                       # Number of branches that fetch has predicted taken
system.cpu.fetch.rate                        1.076345                       # Number of inst fetches per cycle
system.cpu.fetch.rateDist::samples             925696                       # Number of instructions fetched each cycle (Total)
system.cpu.fetch.rateDist::mean              1.480989                       # Number of instructions fetched each cycle (Total)
system.cpu.fetch.rateDist::stdev             2.645271                       # Number of instructions fetched each cycle (Total)
system.cpu.fetch.rateDist::underflows               0      0.00%      0.00% # Number of instructions fetched each cycle (Total)
system.cpu.fetch.rateDist::0                   640485     69.19%     69.19% # Number of instructions fetched each cycle (Total)
system.cpu.fetch.rateDist::1                    34141      3.69%     72.88% # Number of instructions fetched each cycle (Total)
system.cpu.fetch.rateDist::2                    42478      4.59%     77.47% # Number of instructions fetched each cycle (Total)
system.cpu.fetch.rateDist::3                    36071      3.90%     81.36% # Number of instructions fetched each cycle (Total)
system.cpu.fetch.rateDist::4                    20088      2.17%     83.53% # Number of instructions fetched each cycle (Total)
system.cpu.fetch.rateDist::5                    35498      3.83%     87.37% # Number of instructions fetched each cycle (Total)
system.cpu.fetch.rateDist::6                    15885      1.72%     89.08% # Number of instructions fetched each cycle (Total)
system.cpu.fetch.rateDist::7                    17916      1.94%     91.02% # Number of instructions fetched each cycle (Total)
system.cpu.fetch.rateDist::8                    83134      8.98%    100.00% # Number of instructions fetched each cycle (Total)
system.cpu.fetch.rateDist::overflows                0      0.00%    100.00% # Number of instructions fetched each cycle (Total)
system.cpu.fetch.rateDist::min_value                0                       # Number of instructions fetched each cycle (Total)
system.cpu.fetch.rateDist::max_value                8                       # Number of instructions fetched each cycle (Total)
system.cpu.fetch.rateDist::total               925696                       # Number of instructions fetched each cycle (Total)
system.cpu.icache.prefetcher.num_hwpf_issued        71617                       # number of hwpf issued
system.cpu.icache.prefetcher.pfBufferHit       271412                       # number of redundant prefetches already in prefetch queue
system.cpu.icache.prefetcher.pfIdentified       389762                       # number of prefetch candidates identified
system.cpu.icache.prefetcher.pfInCache              0                       # number of redundant prefetches already in cache/mshr dropped
system.cpu.icache.prefetcher.pfRemovedFull        31735                       # number of prefetches dropped due to prefetch queue size
system.cpu.icache.prefetcher.pfSpanPage       7130036                       # number of prefetches that crossed the page
system.cpu.idleCycles                          164385                       # Total number of cycles that the CPU has spent unscheduled due to idling
system.cpu.iew.branchMispredicts                 6686                       # Number of branch mispredicts detected at execute
system.cpu.iew.exec_branches                   246737                       # Number of branches executed
system.cpu.iew.exec_nop                          1107                       # number of nop insts executed
system.cpu.iew.exec_rate                     1.138659                       # Inst execution rate
system.cpu.iew.exec_refs                       393234                       # number of memory reference insts executed
system.cpu.iew.exec_stores                     159229                       # Number of stores executed
system.cpu.iew.exec_swp                             0                       # number of swp insts executed
system.cpu.iew.iewBlockCycles                   11538                       # Number of cycles IEW is blocking
system.cpu.iew.iewDispLoadInsts                240707                       # Number of dispatched load instructions
system.cpu.iew.iewDispNonSpecInsts                102                       # Number of dispatched non-speculative instructions
system.cpu.iew.iewDispSquashedInsts              1587                       # Number of squashed instructions skipped by dispatch
system.cpu.iew.iewDispStoreInsts               165302                       # Number of dispatched store instructions
system.cpu.iew.iewDispatchedInsts             1283891                       # Number of instructions dispatched to IQ
system.cpu.iew.iewExecLoadInsts                234005                       # Number of load instructions executed
system.cpu.iew.iewExecSquashedInsts              8851                       # Number of squashed instructions skipped in execute
system.cpu.iew.iewExecutedInsts               1241231                       # Number of executed instructions
system.cpu.iew.iewIQFullEvents                     33                       # Number of times the IQ has become full, causing a stall
system.cpu.iew.iewIdleCycles                        0                       # Number of cycles IEW is idle
system.cpu.iew.iewLSQFullEvents                  2540                       # Number of times the LSQ has become full, causing a stall
system.cpu.iew.iewSquashCycles                   5912                       # Number of cycles IEW is squashing
system.cpu.iew.iewUnblockCycles                  2586                       # Number of cycles IEW is unblocking
system.cpu.iew.lsq.thread0.blockedLoads             0                       # Number of blocked loads due to partial load-store forwarding
system.cpu.iew.lsq.thread0.cacheBlocked           310                       # Number of times an access to memory failed due to the cache being blocked
system.cpu.iew.lsq.thread0.forwLoads             4632                       # Number of loads that had data forwarded from stores
system.cpu.iew.lsq.thread0.ignoredResponses           53                       # Number of memory responses ignored because the instruction is squashed
system.cpu.iew.lsq.thread0.invAddrLoads             0                       # Number of loads ignored due to an invalid address
system.cpu.iew.lsq.thread0.invAddrSwpfs             0                       # Number of software prefetches ignored due to an invalid address
system.cpu.iew.lsq.thread0.memOrderViolation          112                       # Number of memory ordering violations
system.cpu.iew.lsq.thread0.rescheduledLoads         2370                       # Number of loads that were rescheduled
system.cpu.iew.lsq.thread0.squashedLoads        21045                       # Number of loads squashed
system.cpu.iew.lsq.thread0.squashedStores        11744                       # Number of stores squashed
system.cpu.iew.memOrderViolationEvents            112                       # Number of memory order violations
system.cpu.iew.predictedNotTakenIncorrect         4485                       # Number of branches that were predicted not taken incorrectly
system.cpu.iew.predictedTakenIncorrect           2201                       # Number of branches that were predicted taken incorrectly
system.cpu.iew.wb_consumers                   1158963                       # num instructions consuming a value
system.cpu.iew.wb_count                       1231593                       # cumulative count of insts written-back
system.cpu.iew.wb_fanout                     0.563594                       # average fanout of values written-back
system.cpu.iew.wb_producers                    653185                       # num instructions producing a value
system.cpu.iew.wb_rate                       1.129818                       # insts written-back per cycle
system.cpu.iew.wb_sent                        1235212                       # cumulative count of insts sent to commit
system.cpu.int_regfile_reads                  1390443                       # number of integer regfile reads
system.cpu.int_regfile_writes                  891995                       # number of integer regfile writes
system.cpu.ipc                               0.917365                       # IPC: Instructions Per Cycle
system.cpu.ipc_total                         0.917365                       # IPC: Total IPC of All Threads
system.cpu.iq.FU_type_0::No_OpClass                88      0.01%      0.01% # Type of FU issued
system.cpu.iq.FU_type_0::IntAlu                851921     68.15%     68.16% # Type of FU issued
system.cpu.iq.FU_type_0::IntMult                   43      0.00%     68.16% # Type of FU issued
system.cpu.iq.FU_type_0::IntDiv                    12      0.00%     68.16% # Type of FU issued
system.cpu.iq.FU_type_0::FloatAdd                   6      0.00%     68.16% # Type of FU issued
system.cpu.iq.FU_type_0::FloatCmp                   6      0.00%     68.16% # Type of FU issued
system.cpu.iq.FU_type_0::FloatCvt                  27      0.00%     68.16% # Type of FU issued
system.cpu.iq.FU_type_0::FloatMult                  1      0.00%     68.16% # Type of FU issued
system.cpu.iq.FU_type_0::FloatMultAcc               0      0.00%     68.16% # Type of FU issued
system.cpu.iq.FU_type_0::FloatDiv                   1      0.00%     68.16% # Type of FU issued
system.cpu.iq.FU_type_0::FloatMisc                 42      0.00%     68.17% # Type of FU issued
system.cpu.iq.FU_type_0::FloatSqrt                  0      0.00%     68.17% # Type of FU issued
system.cpu.iq.FU_type_0::SimdAdd                  227      0.02%     68.19% # Type of FU issued
system.cpu.iq.FU_type_0::SimdAddAcc                 0      0.00%     68.19% # Type of FU issued
system.cpu.iq.FU_type_0::SimdAlu                  362      0.03%     68.21% # Type of FU issued
system.cpu.iq.FU_type_0::SimdCmp                  348      0.03%     68.24% # Type of FU issued
system.cpu.iq.FU_type_0::SimdCvt                    4      0.00%     68.24% # Type of FU issued
system.cpu.iq.FU_type_0::SimdMisc                 262      0.02%     68.26% # Type of FU issued
system.cpu.iq.FU_type_0::SimdMult                   0      0.00%     68.26% # Type of FU issued
system.cpu.iq.FU_type_0::SimdMultAcc                0      0.00%     68.26% # Type of FU issued
system.cpu.iq.FU_type_0::SimdShift                  0      0.00%     68.26% # Type of FU issued
system.cpu.iq.FU_type_0::SimdShiftAcc               0      0.00%     68.26% # Type of FU issued
system.cpu.iq.FU_type_0::SimdDiv                    0      0.00%     68.26% # Type of FU issued
system.cpu.iq.FU_type_0::SimdSqrt                   0      0.00%     68.26% # Type of FU issued
system.cpu.iq.FU_type_0::SimdFloatAdd               0      0.00%     68.26% # Type of FU issued
system.cpu.iq.FU_type_0::SimdFloatAlu               0      0.00%     68.26% # Type of FU issued
system.cpu.iq.FU_type_0::SimdFloatCmp               0      0.00%     68.26% # Type of FU issued
system.cpu.iq.FU_type_0::SimdFloatCvt               0      0.00%     68.26% # Type of FU issued
system.cpu.iq.FU_type_0::SimdFloatDiv               0      0.00%     68.26% # Type of FU issued
system.cpu.iq.FU_type_0::SimdFloatMisc              0      0.00%     68.26% # Type of FU issued
system.cpu.iq.FU_type_0::SimdFloatMult              0      0.00%     68.26% # Type of FU issued
system.cpu.iq.FU_type_0::SimdFloatMultAcc            0      0.00%     68.26% # Type of FU issued
system.cpu.iq.FU_type_0::SimdFloatSqrt              0      0.00%     68.26% # Type of FU issued
system.cpu.iq.FU_type_0::SimdReduceAdd              0      0.00%     68.26% # Type of FU issued
system.cpu.iq.FU_type_0::SimdReduceAlu              0      0.00%     68.26% # Type of FU issued
system.cpu.iq.FU_type_0::SimdReduceCmp              0      0.00%     68.26% # Type of FU issued
system.cpu.iq.FU_type_0::SimdFloatReduceAdd            0      0.00%     68.26% # Type of FU issued
system.cpu.iq.FU_type_0::SimdFloatReduceCmp            0      0.00%     68.26% # Type of FU issued
system.cpu.iq.FU_type_0::SimdAes                    0      0.00%     68.26% # Type of FU issued
system.cpu.iq.FU_type_0::SimdAesMix                 0      0.00%     68.26% # Type of FU issued
system.cpu.iq.FU_type_0::SimdSha1Hash               0      0.00%     68.26% # Type of FU issued
system.cpu.iq.FU_type_0::SimdSha1Hash2              0      0.00%     68.26% # Type of FU issued
system.cpu.iq.FU_type_0::SimdSha256Hash             0      0.00%     68.26% # Type of FU issued
system.cpu.iq.FU_type_0::SimdSha256Hash2            0      0.00%     68.26% # Type of FU issued
system.cpu.iq.FU_type_0::SimdShaSigma2              0      0.00%     68.26% # Type of FU issued
system.cpu.iq.FU_type_0::SimdShaSigma3              0      0.00%     68.26% # Type of FU issued
system.cpu.iq.FU_type_0::SimdPredAlu                0      0.00%     68.26% # Type of FU issued
system.cpu.iq.FU_type_0::MemRead               235979     18.88%     87.14% # Type of FU issued
system.cpu.iq.FU_type_0::MemWrite              160761     12.86%    100.00% # Type of FU issued
system.cpu.iq.FU_type_0::FloatMemRead               0      0.00%    100.00% # Type of FU issued
system.cpu.iq.FU_type_0::FloatMemWrite              0      0.00%    100.00% # Type of FU issued
system.cpu.iq.FU_type_0::IprAccess                  0      0.00%    100.00% # Type of FU issued
system.cpu.iq.FU_type_0::InstPrefetch               0      0.00%    100.00% # Type of FU issued
system.cpu.iq.FU_type_0::total                1250090                       # Type of FU issued
system.cpu.iq.fp_alu_accesses                       0                       # Number of floating point alu accesses
system.cpu.iq.fp_inst_queue_reads                   0                       # Number of floating instruction queue reads
system.cpu.iq.fp_inst_queue_wakeup_accesses            0                       # Number of floating instruction queue wakeup accesses
system.cpu.iq.fp_inst_queue_writes                  0                       # Number of floating instruction queue writes
system.cpu.iq.fu_busy_cnt                       19591                       # FU busy when requested
system.cpu.iq.fu_busy_rate                   0.015672                       # FU busy rate (busy events/executed inst)
system.cpu.iq.fu_full::No_OpClass                   0      0.00%      0.00% # attempts to use FU when none available
system.cpu.iq.fu_full::IntAlu                    3965     20.24%     20.24% # attempts to use FU when none available
system.cpu.iq.fu_full::IntMult                      0      0.00%     20.24% # attempts to use FU when none available
system.cpu.iq.fu_full::IntDiv                       0      0.00%     20.24% # attempts to use FU when none available
system.cpu.iq.fu_full::FloatAdd                     0      0.00%     20.24% # attempts to use FU when none available
system.cpu.iq.fu_full::FloatCmp                     0      0.00%     20.24% # attempts to use FU when none available
system.cpu.iq.fu_full::FloatCvt                     0      0.00%     20.24% # attempts to use FU when none available
system.cpu.iq.fu_full::FloatMult                    0      0.00%     20.24% # attempts to use FU when none available
system.cpu.iq.fu_full::FloatMultAcc                 0      0.00%     20.24% # attempts to use FU when none available
system.cpu.iq.fu_full::FloatDiv                     0      0.00%     20.24% # attempts to use FU when none available
system.cpu.iq.fu_full::FloatMisc                    1      0.01%     20.24% # attempts to use FU when none available
system.cpu.iq.fu_full::FloatSqrt                    0      0.00%     20.24% # attempts to use FU when none available
system.cpu.iq.fu_full::SimdAdd                      0      0.00%     20.24% # attempts to use FU when none available
system.cpu.iq.fu_full::SimdAddAcc                   0      0.00%     20.24% # attempts to use FU when none available
system.cpu.iq.fu_full::SimdAlu                      7      0.04%     20.28% # attempts to use FU when none available
system.cpu.iq.fu_full::SimdCmp                      5      0.03%     20.31% # attempts to use FU when none available
system.cpu.iq.fu_full::SimdCvt                      0      0.00%     20.31% # attempts to use FU when none available
system.cpu.iq.fu_full::SimdMisc                     0      0.00%     20.31% # attempts to use FU when none available
system.cpu.iq.fu_full::SimdMult                     0      0.00%     20.31% # attempts to use FU when none available
system.cpu.iq.fu_full::SimdMultAcc                  0      0.00%     20.31% # attempts to use FU when none available
system.cpu.iq.fu_full::SimdShift                    0      0.00%     20.31% # attempts to use FU when none available
system.cpu.iq.fu_full::SimdShiftAcc                 0      0.00%     20.31% # attempts to use FU when none available
system.cpu.iq.fu_full::SimdDiv                      0      0.00%     20.31% # attempts to use FU when none available
system.cpu.iq.fu_full::SimdSqrt                     0      0.00%     20.31% # attempts to use FU when none available
system.cpu.iq.fu_full::SimdFloatAdd                 0      0.00%     20.31% # attempts to use FU when none available
system.cpu.iq.fu_full::SimdFloatAlu                 0      0.00%     20.31% # attempts to use FU when none available
system.cpu.iq.fu_full::SimdFloatCmp                 0      0.00%     20.31% # attempts to use FU when none available
system.cpu.iq.fu_full::SimdFloatCvt                 0      0.00%     20.31% # attempts to use FU when none available
system.cpu.iq.fu_full::SimdFloatDiv                 0      0.00%     20.31% # attempts to use FU when none available
system.cpu.iq.fu_full::SimdFloatMisc                0      0.00%     20.31% # attempts to use FU when none available
system.cpu.iq.fu_full::SimdFloatMult                0      0.00%     20.31% # attempts to use FU when none available
system.cpu.iq.fu_full::SimdFloatMultAcc             0      0.00%     20.31% # attempts to use FU when none available
system.cpu.iq.fu_full::SimdFloatSqrt                0      0.00%     20.31% # attempts to use FU when none available
system.cpu.iq.fu_full::SimdReduceAdd                0      0.00%     20.31% # attempts to use FU when none available
system.cpu.iq.fu_full::SimdReduceAlu                0      0.00%     20.31% # attempts to use FU when none available
system.cpu.iq.fu_full::SimdReduceCmp                0      0.00%     20.31% # attempts to use FU when none available
system.cpu.iq.fu_full::SimdFloatReduceAdd            0      0.00%     20.31% # attempts to use FU when none available
system.cpu.iq.fu_full::SimdFloatReduceCmp            0      0.00%     20.31% # attempts to use FU when none available
system.cpu.iq.fu_full::SimdAes                      0      0.00%     20.31% # attempts to use FU when none available
system.cpu.iq.fu_full::SimdAesMix                   0      0.00%     20.31% # attempts to use FU when none available
system.cpu.iq.fu_full::SimdSha1Hash                 0      0.00%     20.31% # attempts to use FU when none available
system.cpu.iq.fu_full::SimdSha1Hash2                0      0.00%     20.31% # attempts to use FU when none available
system.cpu.iq.fu_full::SimdSha256Hash               0      0.00%     20.31% # attempts to use FU when none available
system.cpu.iq.fu_full::SimdSha256Hash2              0      0.00%     20.31% # attempts to use FU when none available
system.cpu.iq.fu_full::SimdShaSigma2                0      0.00%     20.31% # attempts to use FU when none available
system.cpu.iq.fu_full::SimdShaSigma3                0      0.00%     20.31% # attempts to use FU when none available
system.cpu.iq.fu_full::SimdPredAlu                  0      0.00%     20.31% # attempts to use FU when none available
system.cpu.iq.fu_full::MemRead                   6808     34.75%     55.06% # attempts to use FU when none available
system.cpu.iq.fu_full::MemWrite                  8805     44.94%    100.00% # attempts to use FU when none available
system.cpu.iq.fu_full::FloatMemRead                 0      0.00%    100.00% # attempts to use FU when none available
system.cpu.iq.fu_full::FloatMemWrite                0      0.00%    100.00% # attempts to use FU when none available
system.cpu.iq.fu_full::IprAccess                    0      0.00%    100.00% # attempts to use FU when none available
system.cpu.iq.fu_full::InstPrefetch                 0      0.00%    100.00% # attempts to use FU when none available
system.cpu.iq.int_alu_accesses                1266784                       # Number of integer alu accesses
system.cpu.iq.int_inst_queue_reads            3440342                       # Number of integer instruction queue reads
system.cpu.iq.int_inst_queue_wakeup_accesses      1228944                       # Number of integer instruction queue wakeup accesses
system.cpu.iq.int_inst_queue_writes           1384722                       # Number of integer instruction queue writes
system.cpu.iq.iqInstsAdded                    1282682                       # Number of instructions added to the IQ (excludes non-spec)
system.cpu.iq.iqInstsIssued                   1250090                       # Number of instructions issued
system.cpu.iq.iqNonSpecInstsAdded                 102                       # Number of non-speculative instructions added to the IQ
system.cpu.iq.iqSquashedInstsExamined          105178                       # Number of squashed instructions iterated over during squash; mainly for profiling
system.cpu.iq.iqSquashedInstsIssued               513                       # Number of squashed instructions issued
system.cpu.iq.iqSquashedNonSpecRemoved             27                       # Number of squashed non-spec instructions that were removed
system.cpu.iq.iqSquashedOperandsExamined        75486                       # Number of squashed operands that are examined and possibly removed from graph
system.cpu.iq.issued_per_cycle::samples        925696                       # Number of insts issued each cycle
system.cpu.iq.issued_per_cycle::mean         1.350433                       # Number of insts issued each cycle
system.cpu.iq.issued_per_cycle::stdev        2.002759                       # Number of insts issued each cycle
system.cpu.iq.issued_per_cycle::underflows            0      0.00%      0.00% # Number of insts issued each cycle
system.cpu.iq.issued_per_cycle::0              514604     55.59%     55.59% # Number of insts issued each cycle
system.cpu.iq.issued_per_cycle::1              121341     13.11%     68.70% # Number of insts issued each cycle
system.cpu.iq.issued_per_cycle::2               74432      8.04%     76.74% # Number of insts issued each cycle
system.cpu.iq.issued_per_cycle::3               70255      7.59%     84.33% # Number of insts issued each cycle
system.cpu.iq.issued_per_cycle::4               58887      6.36%     90.69% # Number of insts issued each cycle
system.cpu.iq.issued_per_cycle::5               29517      3.19%     93.88% # Number of insts issued each cycle
system.cpu.iq.issued_per_cycle::6               26419      2.85%     96.73% # Number of insts issued each cycle
system.cpu.iq.issued_per_cycle::7               14455      1.56%     98.29% # Number of insts issued each cycle
system.cpu.iq.issued_per_cycle::8               15786      1.71%    100.00% # Number of insts issued each cycle
system.cpu.iq.issued_per_cycle::overflows            0      0.00%    100.00% # Number of insts issued each cycle
system.cpu.iq.issued_per_cycle::min_value            0                       # Number of insts issued each cycle
system.cpu.iq.issued_per_cycle::max_value            8                       # Number of insts issued each cycle
system.cpu.iq.issued_per_cycle::total          925696                       # Number of insts issued each cycle
system.cpu.iq.rate                           1.146786                       # Inst issue rate
system.cpu.iq.vec_alu_accesses                   2809                       # Number of vector alu accesses
system.cpu.iq.vec_inst_queue_reads               5630                       # Number of vector instruction queue reads
system.cpu.iq.vec_inst_queue_wakeup_accesses         2649                       # Number of vector instruction queue wakeup accesses
system.cpu.iq.vec_inst_queue_writes              3347                       # Number of vector instruction queue writes
system.cpu.itb.accesses                             0                       # DTB accesses
system.cpu.itb.align_faults                         0                       # Number of TLB faults due to alignment restrictions
system.cpu.itb.domain_faults                        0                       # Number of TLB faults due to domain restrictions
system.cpu.itb.flush_entries                        0                       # Number of entries that have been flushed from TLB
system.cpu.itb.flush_tlb                            0                       # Number of times complete TLB was flushed
system.cpu.itb.flush_tlb_asid                       0                       # Number of times TLB was flushed by ASID
system.cpu.itb.flush_tlb_mva                        0                       # Number of times TLB was flushed by MVA
system.cpu.itb.flush_tlb_mva_asid                   0                       # Number of times TLB was flushed by MVA & ASID
system.cpu.itb.hits                                 0                       # DTB hits
system.cpu.itb.inst_accesses                        0                       # ITB inst accesses
system.cpu.itb.inst_hits                            0                       # ITB inst hits
system.cpu.itb.inst_misses                          0                       # ITB inst misses
system.cpu.itb.misses                               0                       # DTB misses
system.cpu.itb.perms_faults                         0                       # Number of TLB faults due to permissions restrictions
system.cpu.itb.prefetch_faults                      0                       # Number of TLB faults due to prefetch
system.cpu.itb.read_accesses                        0                       # DTB read accesses
system.cpu.itb.read_hits                            0                       # DTB read hits
system.cpu.itb.read_misses                          0                       # DTB read misses
system.cpu.itb.stage2_mmu.stage2_tlb.accesses            0                       # DTB accesses
system.cpu.itb.stage2_mmu.stage2_tlb.align_faults            0                       # Number of TLB faults due to alignment restrictions
system.cpu.itb.stage2_mmu.stage2_tlb.domain_faults            0                       # Number of TLB faults due to domain restrictions
system.cpu.itb.stage2_mmu.stage2_tlb.flush_entries            0                       # Number of entries that have been flushed from TLB
system.cpu.itb.stage2_mmu.stage2_tlb.flush_tlb            0                       # Number of times complete TLB was flushed
system.cpu.itb.stage2_mmu.stage2_tlb.flush_tlb_asid            0                       # Number of times TLB was flushed by ASID
system.cpu.itb.stage2_mmu.stage2_tlb.flush_tlb_mva            0                       # Number of times TLB was flushed by MVA
system.cpu.itb.stage2_mmu.stage2_tlb.flush_tlb_mva_asid            0                       # Number of times TLB was flushed by MVA & ASID
system.cpu.itb.stage2_mmu.stage2_tlb.hits            0                       # DTB hits
system.cpu.itb.stage2_mmu.stage2_tlb.inst_accesses            0                       # ITB inst accesses
system.cpu.itb.stage2_mmu.stage2_tlb.inst_hits            0                       # ITB inst hits
system.cpu.itb.stage2_mmu.stage2_tlb.inst_misses            0                       # ITB inst misses
system.cpu.itb.stage2_mmu.stage2_tlb.misses            0                       # DTB misses
system.cpu.itb.stage2_mmu.stage2_tlb.perms_faults            0                       # Number of TLB faults due to permissions restrictions
system.cpu.itb.stage2_mmu.stage2_tlb.prefetch_faults            0                       # Number of TLB faults due to prefetch
system.cpu.itb.stage2_mmu.stage2_tlb.read_accesses            0                       # DTB read accesses
system.cpu.itb.stage2_mmu.stage2_tlb.read_hits            0                       # DTB read hits
system.cpu.itb.stage2_mmu.stage2_tlb.read_misses            0                       # DTB read misses
system.cpu.itb.stage2_mmu.stage2_tlb.walker.walkRequestOrigin_Requested::Data            0                       # Table walker requests started/completed, data/inst
system.cpu.itb.stage2_mmu.stage2_tlb.walker.walkRequestOrigin_Requested::Inst            0                       # Table walker requests started/completed, data/inst
system.cpu.itb.stage2_mmu.stage2_tlb.walker.walkRequestOrigin_Requested::total            0                       # Table walker requests started/completed, data/inst
system.cpu.itb.stage2_mmu.stage2_tlb.walker.walkRequestOrigin_Completed::Data            0                       # Table walker requests started/completed, data/inst
system.cpu.itb.stage2_mmu.stage2_tlb.walker.walkRequestOrigin_Completed::Inst            0                       # Table walker requests started/completed, data/inst
system.cpu.itb.stage2_mmu.stage2_tlb.walker.walkRequestOrigin_Completed::total            0                       # Table walker requests started/completed, data/inst
system.cpu.itb.stage2_mmu.stage2_tlb.walker.walkRequestOrigin::total            0                       # Table walker requests started/completed, data/inst
system.cpu.itb.stage2_mmu.stage2_tlb.walker.walks            0                       # Table walker walks requested
system.cpu.itb.stage2_mmu.stage2_tlb.write_accesses            0                       # DTB write accesses
system.cpu.itb.stage2_mmu.stage2_tlb.write_hits            0                       # DTB write hits
system.cpu.itb.stage2_mmu.stage2_tlb.write_misses            0                       # DTB write misses
system.cpu.itb.walker.walkRequestOrigin_Requested::Data            0                       # Table walker requests started/completed, data/inst
system.cpu.itb.walker.walkRequestOrigin_Requested::Inst            0                       # Table walker requests started/completed, data/inst
system.cpu.itb.walker.walkRequestOrigin_Requested::total            0                       # Table walker requests started/completed, data/inst
system.cpu.itb.walker.walkRequestOrigin_Completed::Data            0                       # Table walker requests started/completed, data/inst
system.cpu.itb.walker.walkRequestOrigin_Completed::Inst            0                       # Table walker requests started/completed, data/inst
system.cpu.itb.walker.walkRequestOrigin_Completed::total            0                       # Table walker requests started/completed, data/inst
system.cpu.itb.walker.walkRequestOrigin::total            0                       # Table walker requests started/completed, data/inst
system.cpu.itb.walker.walks                         0                       # Table walker walks requested
system.cpu.itb.write_accesses                       0                       # DTB write accesses
system.cpu.itb.write_hits                           0                       # DTB write hits
system.cpu.itb.write_misses                         0                       # DTB write misses
system.cpu.memDep0.conflictingLoads              3134                       # Number of conflicting loads.
system.cpu.memDep0.conflictingStores             5117                       # Number of conflicting stores.
system.cpu.memDep0.insertedLoads               240707                       # Number of loads inserted to the mem dependence unit.
system.cpu.memDep0.insertedStores              165302                       # Number of stores inserted to the mem dependence unit.
system.cpu.misc_regfile_reads                  938017                       # number of misc regfile reads
system.cpu.misc_regfile_writes                    272                       # number of misc regfile writes
system.cpu.numCycles                          1090081                       # number of cpu cycles simulated
system.cpu.numWorkItemsCompleted                    0                       # number of work items this cpu completed
system.cpu.numWorkItemsStarted                      0                       # number of work items this cpu started
system.cpu.rename.BlockCycles                   22449                       # Number of cycles rename is blocking
system.cpu.rename.CommittedMaps               1212533                       # Number of HB maps that are committed
system.cpu.rename.IQFullEvents                  10201                       # Number of times rename has blocked due to IQ full
system.cpu.rename.IdleCycles                   387095                       # Number of cycles rename is idle
system.cpu.rename.LQFullEvents                    127                       # Number of times rename has blocked due to LQ full
system.cpu.rename.ROBFullEvents                    21                       # Number of times rename has blocked due to ROB full
system.cpu.rename.RenameLookups               1944098                       # Number of register rename lookups that rename has made
system.cpu.rename.RenamedInsts                1305415                       # Number of instructions processed by rename
system.cpu.rename.RenamedOperands             1344340                       # Number of destination operands rename has renamed
system.cpu.rename.RunCycles                    214224                       # Number of cycles rename is running
system.cpu.rename.SQFullEvents                  22654                       # Number of times rename has blocked due to SQ full
system.cpu.rename.SquashCycles                   5912                       # Number of cycles rename is squashing
system.cpu.rename.UnblockCycles                 53833                       # Number of cycles rename is unblocking
system.cpu.rename.UndoneMaps                   131720                       # Number of HB maps that are undone due to squashing
system.cpu.rename.int_rename_lookups          1464905                       # Number of integer rename lookups
system.cpu.rename.serializeStallCycles         242183                       # count of cycles rename stalled for serializing inst
system.cpu.rename.serializingInsts              14935                       # count of serializing insts renamed
system.cpu.rename.skidInsts                    128764                       # count of insts added to the skid buffer
system.cpu.rename.tempSerializingInsts            103                       # count of temporary serializing insts renamed
system.cpu.rename.vec_rename_lookups             3708                       # Number of vector rename lookups
system.cpu.rob.rob_reads                      2125778                       # The number of ROB reads
system.cpu.rob.rob_writes                     2583120                       # The number of ROB writes
system.cpu.timesIdled                            9643                       # Number of times that the entire CPU went into an idle state and unscheduled itself
system.cpu.vec_regfile_reads                     3181                       # number of vector regfile reads
system.cpu.vec_regfile_writes                    1570                       # number of vector regfile writes
system.cpu.workload.numSyscalls                    16                       # Number of system calls
system.membus.snoop_filter.hit_multi_requests            0                       # Number of requests hitting in the snoop filter with multiple (>1) holders of the requested data.
system.membus.snoop_filter.hit_multi_snoops            0                       # Number of snoops hitting in the snoop filter with multiple (>1) holders of the requested data.
system.membus.snoop_filter.hit_single_requests            0                       # Number of requests hitting in the snoop filter with a single holder of the requested data.
system.membus.snoop_filter.hit_single_snoops            0                       # Number of snoops hitting in the snoop filter with a single holder of the requested data.
system.membus.snoop_filter.tot_requests          2809                       # Total number of requests made to the snoop filter.
system.membus.snoop_filter.tot_snoops               0                       # Total number of snoops made to the snoop filter.
system.tol2bus.snoop_filter.hit_multi_requests            4                       # Number of requests hitting in the snoop filter with multiple (>1) holders of the requested data.
system.tol2bus.snoop_filter.hit_multi_snoops            0                       # Number of snoops hitting in the snoop filter with multiple (>1) holders of the requested data.
system.tol2bus.snoop_filter.hit_single_requests        37968                       # Number of requests hitting in the snoop filter with a single holder of the requested data.
system.tol2bus.snoop_filter.hit_single_snoops            0                       # Number of snoops hitting in the snoop filter with a single holder of the requested data.
system.tol2bus.snoop_filter.tot_requests        76957                       # Total number of requests made to the snoop filter.
system.tol2bus.snoop_filter.tot_snoops              0                       # Total number of snoops made to the snoop filter.
system.membus.trans_dist::ReadResp               2036                       # Transaction distribution
system.membus.trans_dist::ReadExReq               764                       # Transaction distribution
system.membus.trans_dist::ReadExResp              764                       # Transaction distribution
system.membus.trans_dist::ReadSharedReq          2036                       # Transaction distribution
system.membus.trans_dist::InvalidateReq             9                       # Transaction distribution
system.membus.pkt_count_system.l2.mem_side::system.mem_ctrls.port         5609                       # Packet count per connected master and slave (bytes)
system.membus.pkt_count::total                   5609                       # Packet count per connected master and slave (bytes)
system.membus.pkt_size_system.l2.mem_side::system.mem_ctrls.port       179200                       # Cumulative packet size per connected master and slave (bytes)
system.membus.pkt_size::total                  179200                       # Cumulative packet size per connected master and slave (bytes)
system.membus.snoops                                0                       # Total snoops (count)
system.membus.snoopTraffic                          0                       # Total snoop traffic (bytes)
system.membus.snoop_fanout::samples              2809                       # Request fanout histogram
system.membus.snoop_fanout::mean                    0                       # Request fanout histogram
system.membus.snoop_fanout::stdev                   0                       # Request fanout histogram
system.membus.snoop_fanout::underflows              0      0.00%      0.00% # Request fanout histogram
system.membus.snoop_fanout::0                    2809    100.00%    100.00% # Request fanout histogram
system.membus.snoop_fanout::1                       0      0.00%    100.00% # Request fanout histogram
system.membus.snoop_fanout::overflows               0      0.00%    100.00% # Request fanout histogram
system.membus.snoop_fanout::min_value               0                       # Request fanout histogram
system.membus.snoop_fanout::max_value               0                       # Request fanout histogram
system.membus.snoop_fanout::total                2809                       # Request fanout histogram
system.membus.reqLayer0.occupancy             3503500                       # Layer occupancy (ticks)
system.membus.reqLayer0.utilization               0.6                       # Layer utilization (%)
system.membus.respLayer1.occupancy           14823500                       # Layer occupancy (ticks)
system.membus.respLayer1.utilization              2.7                       # Layer utilization (%)
system.membus.power_state.pwrStateResidencyTicks::UNDEFINED    545040000                       # Cumulative time (in ticks) in various power states
system.tol2bus.trans_dist::ReadResp             38128                       # Transaction distribution
system.tol2bus.trans_dist::WritebackDirty          611                       # Transaction distribution
system.tol2bus.trans_dist::WritebackClean        37207                       # Transaction distribution
system.tol2bus.trans_dist::CleanEvict             150                       # Transaction distribution
system.tol2bus.trans_dist::ReadExReq              849                       # Transaction distribution
system.tol2bus.trans_dist::ReadExResp             849                       # Transaction distribution
system.tol2bus.trans_dist::ReadCleanReq         37335                       # Transaction distribution
system.tol2bus.trans_dist::ReadSharedReq          793                       # Transaction distribution
system.tol2bus.trans_dist::InvalidateReq           12                       # Transaction distribution
system.tol2bus.trans_dist::InvalidateResp           12                       # Transaction distribution
system.tol2bus.pkt_count_system.cpu.icache.mem_side::system.l2.cpu_side       111877                       # Packet count per connected master and slave (bytes)
system.tol2bus.pkt_count_system.cpu.dcache.mem_side::system.l2.cpu_side         4069                       # Packet count per connected master and slave (bytes)
system.tol2bus.pkt_count::total                115946                       # Packet count per connected master and slave (bytes)
system.tol2bus.pkt_size_system.cpu.icache.mem_side::system.l2.cpu_side      4770688                       # Cumulative packet size per connected master and slave (bytes)
system.tol2bus.pkt_size_system.cpu.dcache.mem_side::system.l2.cpu_side       144192                       # Cumulative packet size per connected master and slave (bytes)
system.tol2bus.pkt_size::total                4914880                       # Cumulative packet size per connected master and slave (bytes)
system.tol2bus.snoops                               0                       # Total snoops (count)
system.tol2bus.snoopTraffic                         0                       # Total snoop traffic (bytes)
system.tol2bus.snoop_fanout::samples            38989                       # Request fanout histogram
system.tol2bus.snoop_fanout::mean            0.000103                       # Request fanout histogram
system.tol2bus.snoop_fanout::stdev           0.010128                       # Request fanout histogram
system.tol2bus.snoop_fanout::underflows             0      0.00%      0.00% # Request fanout histogram
system.tol2bus.snoop_fanout::0                  38985     99.99%     99.99% # Request fanout histogram
system.tol2bus.snoop_fanout::1                      4      0.01%    100.00% # Request fanout histogram
system.tol2bus.snoop_fanout::2                      0      0.00%    100.00% # Request fanout histogram
system.tol2bus.snoop_fanout::overflows              0      0.00%    100.00% # Request fanout histogram
system.tol2bus.snoop_fanout::min_value              0                       # Request fanout histogram
system.tol2bus.snoop_fanout::max_value              1                       # Request fanout histogram
system.tol2bus.snoop_fanout::total              38989                       # Request fanout histogram
system.tol2bus.reqLayer0.occupancy           82558318                       # Layer occupancy (ticks)
system.tol2bus.reqLayer0.utilization             15.1                       # Layer utilization (%)
system.tol2bus.respLayer1.occupancy           2479479                       # Layer occupancy (ticks)
system.tol2bus.respLayer1.utilization             0.5                       # Layer utilization (%)
system.tol2bus.respLayer0.occupancy          56002500                       # Layer occupancy (ticks)
system.tol2bus.respLayer0.utilization            10.3                       # Layer utilization (%)
system.tol2bus.power_state.pwrStateResidencyTicks::UNDEFINED    545040000                       # Cumulative time (in ticks) in various power states
system.voltage_domain.voltage                       1                       # Voltage in Volts
system.clk_domain.clock                          1000                       # Clock period in ticks
system.l2.demand_hits::.cpu.inst                11447                       # number of demand (read+write) hits
system.l2.demand_hits::.cpu.data                  356                       # number of demand (read+write) hits
system.l2.demand_hits::.cpu.icache.prefetcher        24374                       # number of demand (read+write) hits
system.l2.demand_hits::total                    36177                       # number of demand (read+write) hits
system.l2.overall_hits::.cpu.inst               11447                       # number of overall hits
system.l2.overall_hits::.cpu.data                 356                       # number of overall hits
system.l2.overall_hits::.cpu.icache.prefetcher        24374                       # number of overall hits
system.l2.overall_hits::total                   36177                       # number of overall hits
system.l2.demand_misses::.cpu.inst               1514                       # number of demand (read+write) misses
system.l2.demand_misses::.cpu.data               1286                       # number of demand (read+write) misses
system.l2.demand_misses::total                   2800                       # number of demand (read+write) misses
system.l2.overall_misses::.cpu.inst              1514                       # number of overall misses
system.l2.overall_misses::.cpu.data              1286                       # number of overall misses
system.l2.overall_misses::total                  2800                       # number of overall misses
system.l2.demand_miss_latency::.cpu.inst    119482000                       # number of demand (read+write) miss cycles
system.l2.demand_miss_latency::.cpu.data    101885500                       # number of demand (read+write) miss cycles
system.l2.demand_miss_latency::total        221367500                       # number of demand (read+write) miss cycles
system.l2.overall_miss_latency::.cpu.inst    119482000                       # number of overall miss cycles
system.l2.overall_miss_latency::.cpu.data    101885500                       # number of overall miss cycles
system.l2.overall_miss_latency::total       221367500                       # number of overall miss cycles
system.l2.demand_accesses::.cpu.inst            12961                       # number of demand (read+write) accesses
system.l2.demand_accesses::.cpu.data             1642                       # number of demand (read+write) accesses
system.l2.demand_accesses::.cpu.icache.prefetcher        24374                       # number of demand (read+write) accesses
system.l2.demand_accesses::total                38977                       # number of demand (read+write) accesses
system.l2.overall_accesses::.cpu.inst           12961                       # number of overall (read+write) accesses
system.l2.overall_accesses::.cpu.data            1642                       # number of overall (read+write) accesses
system.l2.overall_accesses::.cpu.icache.prefetcher        24374                       # number of overall (read+write) accesses
system.l2.overall_accesses::total               38977                       # number of overall (read+write) accesses
system.l2.demand_miss_rate::.cpu.inst        0.116812                       # miss rate for demand accesses
system.l2.demand_miss_rate::.cpu.data        0.783191                       # miss rate for demand accesses
system.l2.demand_miss_rate::total            0.071837                       # miss rate for demand accesses
system.l2.overall_miss_rate::.cpu.inst       0.116812                       # miss rate for overall accesses
system.l2.overall_miss_rate::.cpu.data       0.783191                       # miss rate for overall accesses
system.l2.overall_miss_rate::total           0.071837                       # miss rate for overall accesses
system.l2.demand_avg_miss_latency::.cpu.inst 78918.097754                       # average overall miss latency
system.l2.demand_avg_miss_latency::.cpu.data 79226.671851                       # average overall miss latency
system.l2.demand_avg_miss_latency::total 79059.821429                       # average overall miss latency
system.l2.overall_avg_miss_latency::.cpu.inst 78918.097754                       # average overall miss latency
system.l2.overall_avg_miss_latency::.cpu.data 79226.671851                       # average overall miss latency
system.l2.overall_avg_miss_latency::total 79059.821429                       # average overall miss latency
system.l2.blocked_cycles::no_mshrs                  0                       # number of cycles access was blocked
system.l2.blocked_cycles::no_targets                0                       # number of cycles access was blocked
system.l2.blocked::no_mshrs                         0                       # number of cycles access was blocked
system.l2.blocked::no_targets                       0                       # number of cycles access was blocked
system.l2.avg_blocked_cycles::no_mshrs            nan                       # average number of cycles each access was blocked
system.l2.avg_blocked_cycles::no_targets          nan                       # average number of cycles each access was blocked
system.l2.demand_mshr_misses::.cpu.inst          1514                       # number of demand (read+write) MSHR misses
system.l2.demand_mshr_misses::.cpu.data          1286                       # number of demand (read+write) MSHR misses
system.l2.demand_mshr_misses::total              2800                       # number of demand (read+write) MSHR misses
system.l2.overall_mshr_misses::.cpu.inst         1514                       # number of overall MSHR misses
system.l2.overall_mshr_misses::.cpu.data         1286                       # number of overall MSHR misses
system.l2.overall_mshr_misses::total             2800                       # number of overall MSHR misses
system.l2.demand_mshr_miss_latency::.cpu.inst    104342000                       # number of demand (read+write) MSHR miss cycles
system.l2.demand_mshr_miss_latency::.cpu.data     89025500                       # number of demand (read+write) MSHR miss cycles
system.l2.demand_mshr_miss_latency::total    193367500                       # number of demand (read+write) MSHR miss cycles
system.l2.overall_mshr_miss_latency::.cpu.inst    104342000                       # number of overall MSHR miss cycles
system.l2.overall_mshr_miss_latency::.cpu.data     89025500                       # number of overall MSHR miss cycles
system.l2.overall_mshr_miss_latency::total    193367500                       # number of overall MSHR miss cycles
system.l2.demand_mshr_miss_rate::.cpu.inst     0.116812                       # mshr miss rate for demand accesses
system.l2.demand_mshr_miss_rate::.cpu.data     0.783191                       # mshr miss rate for demand accesses
system.l2.demand_mshr_miss_rate::total       0.071837                       # mshr miss rate for demand accesses
system.l2.overall_mshr_miss_rate::.cpu.inst     0.116812                       # mshr miss rate for overall accesses
system.l2.overall_mshr_miss_rate::.cpu.data     0.783191                       # mshr miss rate for overall accesses
system.l2.overall_mshr_miss_rate::total      0.071837                       # mshr miss rate for overall accesses
system.l2.demand_avg_mshr_miss_latency::.cpu.inst 68918.097754                       # average overall mshr miss latency
system.l2.demand_avg_mshr_miss_latency::.cpu.data 69226.671851                       # average overall mshr miss latency
system.l2.demand_avg_mshr_miss_latency::total 69059.821429                       # average overall mshr miss latency
system.l2.overall_avg_mshr_miss_latency::.cpu.inst 68918.097754                       # average overall mshr miss latency
system.l2.overall_avg_mshr_miss_latency::.cpu.data 69226.671851                       # average overall mshr miss latency
system.l2.overall_avg_mshr_miss_latency::total 69059.821429                       # average overall mshr miss latency
system.l2.replacements                              0                       # number of replacements
system.l2.WritebackDirty_hits::.writebacks          611                       # number of WritebackDirty hits
system.l2.WritebackDirty_hits::total              611                       # number of WritebackDirty hits
system.l2.WritebackDirty_accesses::.writebacks          611                       # number of WritebackDirty accesses(hits+misses)
system.l2.WritebackDirty_accesses::total          611                       # number of WritebackDirty accesses(hits+misses)
system.l2.WritebackClean_hits::.writebacks        37203                       # number of WritebackClean hits
system.l2.WritebackClean_hits::total            37203                       # number of WritebackClean hits
system.l2.WritebackClean_accesses::.writebacks        37203                       # number of WritebackClean accesses(hits+misses)
system.l2.WritebackClean_accesses::total        37203                       # number of WritebackClean accesses(hits+misses)
system.l2.ReadExReq_hits::.cpu.data                85                       # number of ReadExReq hits
system.l2.ReadExReq_hits::total                    85                       # number of ReadExReq hits
system.l2.ReadExReq_misses::.cpu.data             764                       # number of ReadExReq misses
system.l2.ReadExReq_misses::total                 764                       # number of ReadExReq misses
system.l2.ReadExReq_miss_latency::.cpu.data     59882000                       # number of ReadExReq miss cycles
system.l2.ReadExReq_miss_latency::total      59882000                       # number of ReadExReq miss cycles
system.l2.ReadExReq_accesses::.cpu.data           849                       # number of ReadExReq accesses(hits+misses)
system.l2.ReadExReq_accesses::total               849                       # number of ReadExReq accesses(hits+misses)
system.l2.ReadExReq_miss_rate::.cpu.data     0.899882                       # miss rate for ReadExReq accesses
system.l2.ReadExReq_miss_rate::total         0.899882                       # miss rate for ReadExReq accesses
system.l2.ReadExReq_avg_miss_latency::.cpu.data 78379.581152                       # average ReadExReq miss latency
system.l2.ReadExReq_avg_miss_latency::total 78379.581152                       # average ReadExReq miss latency
system.l2.ReadExReq_mshr_misses::.cpu.data          764                       # number of ReadExReq MSHR misses
system.l2.ReadExReq_mshr_misses::total            764                       # number of ReadExReq MSHR misses
system.l2.ReadExReq_mshr_miss_latency::.cpu.data     52242000                       # number of ReadExReq MSHR miss cycles
system.l2.ReadExReq_mshr_miss_latency::total     52242000                       # number of ReadExReq MSHR miss cycles
system.l2.ReadExReq_mshr_miss_rate::.cpu.data     0.899882                       # mshr miss rate for ReadExReq accesses
system.l2.ReadExReq_mshr_miss_rate::total     0.899882                       # mshr miss rate for ReadExReq accesses
system.l2.ReadExReq_avg_mshr_miss_latency::.cpu.data 68379.581152                       # average ReadExReq mshr miss latency
system.l2.ReadExReq_avg_mshr_miss_latency::total 68379.581152                       # average ReadExReq mshr miss latency
system.l2.ReadCleanReq_hits::.cpu.inst          11447                       # number of ReadCleanReq hits
system.l2.ReadCleanReq_hits::.cpu.icache.prefetcher        24374                       # number of ReadCleanReq hits
system.l2.ReadCleanReq_hits::total              35821                       # number of ReadCleanReq hits
system.l2.ReadCleanReq_misses::.cpu.inst         1514                       # number of ReadCleanReq misses
system.l2.ReadCleanReq_misses::total             1514                       # number of ReadCleanReq misses
system.l2.ReadCleanReq_miss_latency::.cpu.inst    119482000                       # number of ReadCleanReq miss cycles
system.l2.ReadCleanReq_miss_latency::total    119482000                       # number of ReadCleanReq miss cycles
system.l2.ReadCleanReq_accesses::.cpu.inst        12961                       # number of ReadCleanReq accesses(hits+misses)
system.l2.ReadCleanReq_accesses::.cpu.icache.prefetcher        24374                       # number of ReadCleanReq accesses(hits+misses)
system.l2.ReadCleanReq_accesses::total          37335                       # number of ReadCleanReq accesses(hits+misses)
[...]
system.cpu.dcache.overall_miss_latency::total    398028406                       # number of overall miss cycles
system.cpu.dcache.demand_accesses::.cpu.data       380526                       # number of demand (read+write) accesses
system.cpu.dcache.demand_accesses::total       380526                       # number of demand (read+write) accesses
system.cpu.dcache.overall_accesses::.cpu.data       381317                       # number of overall (read+write) accesses
system.cpu.dcache.overall_accesses::total       381317                       # number of overall (read+write) accesses
system.cpu.dcache.demand_miss_rate::.cpu.data     0.017636                       # miss rate for demand accesses
system.cpu.dcache.demand_miss_rate::total     0.017636                       # miss rate for demand accesses
system.cpu.dcache.overall_miss_rate::.cpu.data     0.017623                       # miss rate for overall accesses
system.cpu.dcache.overall_miss_rate::total     0.017623                       # miss rate for overall accesses
system.cpu.dcache.demand_avg_miss_latency::.cpu.data 59309.850395                       # average overall miss latency
system.cpu.dcache.demand_avg_miss_latency::total 59309.850395                       # average overall miss latency
system.cpu.dcache.overall_avg_miss_latency::.cpu.data 59230.417560                       # average overall miss latency
system.cpu.dcache.overall_avg_miss_latency::total 59230.417560                       # average overall miss latency
system.cpu.dcache.blocked_cycles::no_mshrs        13715                       # number of cycles access was blocked
system.cpu.dcache.blocked_cycles::no_targets         1375                       # number of cycles access was blocked
system.cpu.dcache.blocked::no_mshrs               325                       # number of cycles access was blocked
system.cpu.dcache.blocked::no_targets              12                       # number of cycles access was blocked
system.cpu.dcache.avg_blocked_cycles::no_mshrs    42.200000                       # average number of cycles each access was blocked
system.cpu.dcache.avg_blocked_cycles::no_targets   114.583333                       # average number of cycles each access was blocked
system.cpu.dcache.writebacks::.writebacks          611                       # number of writebacks
system.cpu.dcache.writebacks::total               611                       # number of writebacks
system.cpu.dcache.demand_mshr_hits::.cpu.data         5067                       # number of demand (read+write) MSHR hits
system.cpu.dcache.demand_mshr_hits::total         5067                       # number of demand (read+write) MSHR hits
system.cpu.dcache.overall_mshr_hits::.cpu.data         5067                       # number of overall MSHR hits
system.cpu.dcache.overall_mshr_hits::total         5067                       # number of overall MSHR hits
system.cpu.dcache.demand_mshr_misses::.cpu.data         1644                       # number of demand (read+write) MSHR misses
system.cpu.dcache.demand_mshr_misses::total         1644                       # number of demand (read+write) MSHR misses
system.cpu.dcache.overall_mshr_misses::.cpu.data         1653                       # number of overall MSHR misses
system.cpu.dcache.overall_mshr_misses::total         1653                       # number of overall MSHR misses
system.cpu.dcache.demand_mshr_miss_latency::.cpu.data    108147488                       # number of demand (read+write) MSHR miss cycles
system.cpu.dcache.demand_mshr_miss_latency::total    108147488                       # number of demand (read+write) MSHR miss cycles
system.cpu.dcache.overall_mshr_miss_latency::.cpu.data    108476488                       # number of overall MSHR miss cycles
system.cpu.dcache.overall_mshr_miss_latency::total    108476488                       # number of overall MSHR miss cycles
system.cpu.dcache.demand_mshr_miss_rate::.cpu.data     0.004320                       # mshr miss rate for demand accesses
system.cpu.dcache.demand_mshr_miss_rate::total     0.004320                       # mshr miss rate for demand accesses
system.cpu.dcache.overall_mshr_miss_rate::.cpu.data     0.004335                       # mshr miss rate for overall accesses
system.cpu.dcache.overall_mshr_miss_rate::total     0.004335                       # mshr miss rate for overall accesses
system.cpu.dcache.demand_avg_mshr_miss_latency::.cpu.data 65783.143552                       # average overall mshr miss latency
system.cpu.dcache.demand_avg_mshr_miss_latency::total 65783.143552                       # average overall mshr miss latency
system.cpu.dcache.overall_avg_mshr_miss_latency::.cpu.data 65624.009679                       # average overall mshr miss latency
system.cpu.dcache.overall_avg_mshr_miss_latency::total 65624.009679                       # average overall mshr miss latency
system.cpu.dcache.replacements                    761                       # number of replacements
system.cpu.dcache.ReadReq_hits::.cpu.data       224254                       # number of ReadReq hits
system.cpu.dcache.ReadReq_hits::total          224254                       # number of ReadReq hits
system.cpu.dcache.ReadReq_misses::.cpu.data         2580                       # number of ReadReq misses
system.cpu.dcache.ReadReq_misses::total          2580                       # number of ReadReq misses
system.cpu.dcache.ReadReq_miss_latency::.cpu.data    130734000                       # number of ReadReq miss cycles
system.cpu.dcache.ReadReq_miss_latency::total    130734000                       # number of ReadReq miss cycles
system.cpu.dcache.ReadReq_accesses::.cpu.data       226834                       # number of ReadReq accesses(hits+misses)
system.cpu.dcache.ReadReq_accesses::total       226834                       # number of ReadReq accesses(hits+misses)
system.cpu.dcache.ReadReq_miss_rate::.cpu.data     0.011374                       # miss rate for ReadReq accesses
system.cpu.dcache.ReadReq_miss_rate::total     0.011374                       # miss rate for ReadReq accesses
system.cpu.dcache.ReadReq_avg_miss_latency::.cpu.data 50672.093023                       # average ReadReq miss latency
system.cpu.dcache.ReadReq_avg_miss_latency::total 50672.093023                       # average ReadReq miss latency
system.cpu.dcache.ReadReq_mshr_hits::.cpu.data         1797                       # number of ReadReq MSHR hits
system.cpu.dcache.ReadReq_mshr_hits::total         1797                       # number of ReadReq MSHR hits
system.cpu.dcache.ReadReq_mshr_misses::.cpu.data          783                       # number of ReadReq MSHR misses
system.cpu.dcache.ReadReq_mshr_misses::total          783                       # number of ReadReq MSHR misses
system.cpu.dcache.ReadReq_mshr_miss_latency::.cpu.data     45681500                       # number of ReadReq MSHR miss cycles
system.cpu.dcache.ReadReq_mshr_miss_latency::total     45681500                       # number of ReadReq MSHR miss cycles
system.cpu.dcache.ReadReq_mshr_miss_rate::.cpu.data     0.003452                       # mshr miss rate for ReadReq accesses
system.cpu.dcache.ReadReq_mshr_miss_rate::total     0.003452                       # mshr miss rate for ReadReq accesses
system.cpu.dcache.ReadReq_avg_mshr_miss_latency::.cpu.data 58341.634738                       # average ReadReq mshr miss latency
system.cpu.dcache.ReadReq_avg_mshr_miss_latency::total 58341.634738                       # average ReadReq mshr miss latency
system.cpu.dcache.WriteReq_hits::.cpu.data       149561                       # number of WriteReq hits
system.cpu.dcache.WriteReq_hits::total         149561                       # number of WriteReq hits
system.cpu.dcache.WriteReq_misses::.cpu.data         4124                       # number of WriteReq misses
system.cpu.dcache.WriteReq_misses::total         4124                       # number of WriteReq misses
system.cpu.dcache.WriteReq_miss_latency::.cpu.data    267071909                       # number of WriteReq miss cycles
system.cpu.dcache.WriteReq_miss_latency::total    267071909                       # number of WriteReq miss cycles
system.cpu.dcache.WriteReq_accesses::.cpu.data       153685                       # number of WriteReq accesses(hits+misses)
system.cpu.dcache.WriteReq_accesses::total       153685                       # number of WriteReq accesses(hits+misses)
system.cpu.dcache.WriteReq_miss_rate::.cpu.data     0.026834                       # miss rate for WriteReq accesses
system.cpu.dcache.WriteReq_miss_rate::total     0.026834                       # miss rate for WriteReq accesses
system.cpu.dcache.WriteReq_avg_miss_latency::.cpu.data 64760.404704                       # average WriteReq miss latency
system.cpu.dcache.WriteReq_avg_miss_latency::total 64760.404704                       # average WriteReq miss latency
system.cpu.dcache.WriteReq_mshr_hits::.cpu.data         3270                       # number of WriteReq MSHR hits
system.cpu.dcache.WriteReq_mshr_hits::total         3270                       # number of WriteReq MSHR hits
system.cpu.dcache.WriteReq_mshr_misses::.cpu.data          854                       # number of WriteReq MSHR misses
system.cpu.dcache.WriteReq_mshr_misses::total          854                       # number of WriteReq MSHR misses
system.cpu.dcache.WriteReq_mshr_miss_latency::.cpu.data     62250491                       # number of WriteReq MSHR miss cycles
system.cpu.dcache.WriteReq_mshr_miss_latency::total     62250491                       # number of WriteReq MSHR miss cycles
system.cpu.dcache.WriteReq_mshr_miss_rate::.cpu.data     0.005557                       # mshr miss rate for WriteReq accesses
system.cpu.dcache.WriteReq_mshr_miss_rate::total     0.005557                       # mshr miss rate for WriteReq accesses
system.cpu.dcache.WriteReq_avg_mshr_miss_latency::.cpu.data 72892.846604                       # average WriteReq mshr miss latency
system.cpu.dcache.WriteReq_avg_mshr_miss_latency::total 72892.846604                       # average WriteReq mshr miss latency
system.cpu.dcache.SoftPFReq_hits::.cpu.data          782                       # number of SoftPFReq hits
system.cpu.dcache.SoftPFReq_hits::total           782                       # number of SoftPFReq hits
system.cpu.dcache.SoftPFReq_misses::.cpu.data            9                       # number of SoftPFReq misses
system.cpu.dcache.SoftPFReq_misses::total            9                       # number of SoftPFReq misses
system.cpu.dcache.SoftPFReq_accesses::.cpu.data          791                       # number of SoftPFReq accesses(hits+misses)
system.cpu.dcache.SoftPFReq_accesses::total          791                       # number of SoftPFReq accesses(hits+misses)
system.cpu.dcache.SoftPFReq_miss_rate::.cpu.data     0.011378                       # miss rate for SoftPFReq accesses
system.cpu.dcache.SoftPFReq_miss_rate::total     0.011378                       # miss rate for SoftPFReq accesses
system.cpu.dcache.SoftPFReq_mshr_misses::.cpu.data            9                       # number of SoftPFReq MSHR misses
system.cpu.dcache.SoftPFReq_mshr_misses::total            9                       # number of SoftPFReq MSHR misses
system.cpu.dcache.SoftPFReq_mshr_miss_latency::.cpu.data       329000                       # number of SoftPFReq MSHR miss cycles
system.cpu.dcache.SoftPFReq_mshr_miss_latency::total       329000                       # number of SoftPFReq MSHR miss cycles
system.cpu.dcache.SoftPFReq_mshr_miss_rate::.cpu.data     0.011378                       # mshr miss rate for SoftPFReq accesses
system.cpu.dcache.SoftPFReq_mshr_miss_rate::total     0.011378                       # mshr miss rate for SoftPFReq accesses
system.cpu.dcache.SoftPFReq_avg_mshr_miss_latency::.cpu.data 36555.555556                       # average SoftPFReq mshr miss latency
system.cpu.dcache.SoftPFReq_avg_mshr_miss_latency::total 36555.555556                       # average SoftPFReq mshr miss latency
system.cpu.dcache.WriteLineReq_misses::.cpu.data            7                       # number of WriteLineReq misses
system.cpu.dcache.WriteLineReq_misses::total            7                       # number of WriteLineReq misses
system.cpu.dcache.WriteLineReq_miss_latency::.cpu.data       222497                       # number of WriteLineReq miss cycles
system.cpu.dcache.WriteLineReq_miss_latency::total       222497                       # number of WriteLineReq miss cycles
system.cpu.dcache.WriteLineReq_accesses::.cpu.data            7                       # number of WriteLineReq accesses(hits+misses)
system.cpu.dcache.WriteLineReq_accesses::total            7                       # number of WriteLineReq accesses(hits+misses)
system.cpu.dcache.WriteLineReq_miss_rate::.cpu.data            1                       # miss rate for WriteLineReq accesses
system.cpu.dcache.WriteLineReq_miss_rate::total            1                       # miss rate for WriteLineReq accesses
system.cpu.dcache.WriteLineReq_avg_miss_latency::.cpu.data 31785.285714                       # average WriteLineReq miss latency
system.cpu.dcache.WriteLineReq_avg_miss_latency::total 31785.285714                       # average WriteLineReq miss latency
system.cpu.dcache.WriteLineReq_mshr_misses::.cpu.data            7                       # number of WriteLineReq MSHR misses
system.cpu.dcache.WriteLineReq_mshr_misses::total            7                       # number of WriteLineReq MSHR misses
system.cpu.dcache.WriteLineReq_mshr_miss_latency::.cpu.data       215497                       # number of WriteLineReq MSHR miss cycles
system.cpu.dcache.WriteLineReq_mshr_miss_latency::total       215497                       # number of WriteLineReq MSHR miss cycles
system.cpu.dcache.WriteLineReq_mshr_miss_rate::.cpu.data            1                       # mshr miss rate for WriteLineReq accesses
system.cpu.dcache.WriteLineReq_mshr_miss_rate::total            1                       # mshr miss rate for WriteLineReq accesses
system.cpu.dcache.WriteLineReq_avg_mshr_miss_latency::.cpu.data 30785.285714                       # average WriteLineReq mshr miss latency
system.cpu.dcache.WriteLineReq_avg_mshr_miss_latency::total 30785.285714                       # average WriteLineReq mshr miss latency
system.cpu.dcache.LoadLockedReq_hits::.cpu.data           66                       # number of LoadLockedReq hits
system.cpu.dcache.LoadLockedReq_hits::total           66                       # number of LoadLockedReq hits
system.cpu.dcache.LoadLockedReq_misses::.cpu.data            2                       # number of LoadLockedReq misses
system.cpu.dcache.LoadLockedReq_misses::total            2                       # number of LoadLockedReq misses
system.cpu.dcache.LoadLockedReq_miss_latency::.cpu.data       210500                       # number of LoadLockedReq miss cycles
system.cpu.dcache.LoadLockedReq_miss_latency::total       210500                       # number of LoadLockedReq miss cycles
system.cpu.dcache.LoadLockedReq_accesses::.cpu.data           68                       # number of LoadLockedReq accesses(hits+misses)
system.cpu.dcache.LoadLockedReq_accesses::total           68                       # number of LoadLockedReq accesses(hits+misses)
system.cpu.dcache.LoadLockedReq_miss_rate::.cpu.data     0.029412                       # miss rate for LoadLockedReq accesses
system.cpu.dcache.LoadLockedReq_miss_rate::total     0.029412                       # miss rate for LoadLockedReq accesses
system.cpu.dcache.LoadLockedReq_avg_miss_latency::.cpu.data       105250                       # average LoadLockedReq miss latency
system.cpu.dcache.LoadLockedReq_avg_miss_latency::total       105250                       # average LoadLockedReq miss latency
system.cpu.dcache.LoadLockedReq_mshr_hits::.cpu.data            1                       # number of LoadLockedReq MSHR hits
system.cpu.dcache.LoadLockedReq_mshr_hits::total            1                       # number of LoadLockedReq MSHR hits
system.cpu.dcache.LoadLockedReq_mshr_misses::.cpu.data            1                       # number of LoadLockedReq MSHR misses
system.cpu.dcache.LoadLockedReq_mshr_misses::total            1                       # number of LoadLockedReq MSHR misses
system.cpu.dcache.LoadLockedReq_mshr_miss_latency::.cpu.data       108500                       # number of LoadLockedReq MSHR miss cycles
system.cpu.dcache.LoadLockedReq_mshr_miss_latency::total       108500                       # number of LoadLockedReq MSHR miss cycles
system.cpu.dcache.LoadLockedReq_mshr_miss_rate::.cpu.data     0.014706                       # mshr miss rate for LoadLockedReq accesses
system.cpu.dcache.LoadLockedReq_mshr_miss_rate::total     0.014706                       # mshr miss rate for LoadLockedReq accesses
system.cpu.dcache.LoadLockedReq_avg_mshr_miss_latency::.cpu.data       108500                       # average LoadLockedReq mshr miss latency
system.cpu.dcache.LoadLockedReq_avg_mshr_miss_latency::total       108500                       # average LoadLockedReq mshr miss latency
system.cpu.dcache.StoreCondReq_hits::.cpu.data           58                       # number of StoreCondReq hits
system.cpu.dcache.StoreCondReq_hits::total           58                       # number of StoreCondReq hits
system.cpu.dcache.StoreCondReq_accesses::.cpu.data           58                       # number of StoreCondReq accesses(hits+misses)
system.cpu.dcache.StoreCondReq_accesses::total           58                       # number of StoreCondReq accesses(hits+misses)
system.cpu.dcache.power_state.pwrStateResidencyTicks::UNDEFINED    545040000                       # Cumulative time (in ticks) in various power states
system.cpu.dcache.tags.tagsinuse           551.086360                       # Cycle average of tags in use
system.cpu.dcache.tags.total_refs              376375                       # Total number of references to valid blocks.
system.cpu.dcache.tags.sampled_refs              1654                       # Sample count of references to valid blocks.
system.cpu.dcache.tags.avg_refs            227.554414                       # Average number of references to valid blocks.
system.cpu.dcache.tags.warmup_cycle            176500                       # Cycle when the warmup percentage was hit.
system.cpu.dcache.tags.occ_blocks::.cpu.data   551.086360                       # Average occupied blocks per requestor
system.cpu.dcache.tags.occ_percent::.cpu.data     0.538170                       # Average percentage of cache occupancy
system.cpu.dcache.tags.occ_percent::total     0.538170                       # Average percentage of cache occupancy
system.cpu.dcache.tags.occ_task_id_blocks::1024          893                       # Occupied blocks per task id
system.cpu.dcache.tags.age_task_id_blocks_1024::0           24                       # Occupied blocks per task id
system.cpu.dcache.tags.age_task_id_blocks_1024::1          408                       # Occupied blocks per task id
system.cpu.dcache.tags.age_task_id_blocks_1024::2          461                       # Occupied blocks per task id
system.cpu.dcache.tags.occ_task_id_percent::1024     0.872070                       # Percentage of cache occupancy per task id
system.cpu.dcache.tags.tag_accesses            764540                       # Number of tag accesses
system.cpu.dcache.tags.data_accesses           764540                       # Number of data accesses
system.cpu.dcache.tags.power_state.pwrStateResidencyTicks::UNDEFINED    545040000                       # Cumulative time (in ticks) in various power states
system.cpu.power_state.pwrStateResidencyTicks::ON    545040000                       # Cumulative time (in ticks) in various power states

---------- End Simulation Statistics   ----------
