
---------- Begin Simulation Statistics ----------
final_tick                                   68272500                       # Number of ticks from beginning of simulation (restored from checkpoints and never reset)
host_inst_rate                                  33213                       # Simulator instruction rate (inst/s)
host_mem_usage                                 866492                       # Number of bytes of host memory used
host_op_rate                                    40553                       # Simulator op (including micro ops) rate (op/s)
host_seconds                                     0.88                       # Real time elapsed on the host
host_tick_rate                               77229052                       # Simulator tick rate (ticks/s)
sim_freq                                 1000000000000                       # Frequency of simulated ticks
sim_insts                                       29355                       # Number of instructions simulated
sim_ops                                         35849                       # Number of ops (including micro ops) simulated
sim_seconds                                  0.000068                       # Number of seconds simulated
sim_ticks                                    68272500                       # Number of ticks simulated
system.cpu.branchPred.BTBCorrect                    0                       # Number of correct BTB predictions (this stat may not work properly.
system.cpu.branchPred.BTBHitPct             68.678515                       # BTB Hit Percentage
system.cpu.branchPred.BTBHits                    3903                       # Number of BTB hits
system.cpu.branchPred.BTBLookups                 5683                       # Number of BTB lookups
system.cpu.branchPred.RASInCorrect                  5                       # Number of incorrect RAS predictions.
system.cpu.branchPred.condIncorrect              1550                       # Number of conditional branches incorrect
system.cpu.branchPred.condPredicted              8999                       # Number of conditional branches predicted
system.cpu.branchPred.indirectHits                 51                       # Number of indirect target hits.
system.cpu.branchPred.indirectLookups             445                       # Number of indirect predictor lookups.
system.cpu.branchPred.indirectMisses              394                       # Number of indirect misses.
system.cpu.branchPred.lookups                   12664                       # Number of BP lookups
system.cpu.branchPred.usedRAS                    1077                       # Number of times the RAS was used to get a target.
system.cpu.branchPredindirectMispredicted          125                       # Number of mispredicted indirect branches.
system.cpu.cc_regfile_reads                     10672                       # number of cc regfile reads
system.cpu.cc_regfile_writes                    10419                       # number of cc regfile writes
system.cpu.commit.amos                              0                       # Number of atomic instructions committed
system.cpu.commit.branchMispredicts              1049                       # The number of times a branch was mispredicted
system.cpu.commit.branches                       6765                       # Number of branches committed
system.cpu.commit.bw_lim_events                  1175                       # number cycles where commit BW limit reached
system.cpu.commit.commitNonSpecStalls              48                       # The number of times commit has been forced to stall to communicate backwards
system.cpu.commit.commitSquashedInsts           15792                       # The number of squashed insts skipped by commit
system.cpu.commit.committedInsts                29435                       # Number of instructions committed
system.cpu.commit.committedOps                  35929                       # Number of ops (including micro ops) committed
system.cpu.commit.committed_per_cycle::samples        56239                       # Number of insts commited each cycle
system.cpu.commit.committed_per_cycle::mean     0.638863                       # Number of insts commited each cycle
system.cpu.commit.committed_per_cycle::stdev     1.625087                       # Number of insts commited each cycle
system.cpu.commit.committed_per_cycle::underflows            0      0.00%      0.00% # Number of insts commited each cycle
system.cpu.commit.committed_per_cycle::0        44239     78.66%     78.66% # Number of insts commited each cycle
system.cpu.commit.committed_per_cycle::1         4486      7.98%     86.64% # Number of insts commited each cycle
system.cpu.commit.committed_per_cycle::2         2378      4.23%     90.87% # Number of insts commited each cycle
system.cpu.commit.committed_per_cycle::3         1382      2.46%     93.32% # Number of insts commited each cycle
system.cpu.commit.committed_per_cycle::4          934      1.66%     94.99% # Number of insts commited each cycle
system.cpu.commit.committed_per_cycle::5          859      1.53%     96.51% # Number of insts commited each cycle
system.cpu.commit.committed_per_cycle::6          392      0.70%     97.21% # Number of insts commited each cycle
system.cpu.commit.committed_per_cycle::7          394      0.70%     97.91% # Number of insts commited each cycle
system.cpu.commit.committed_per_cycle::8         1175      2.09%    100.00% # Number of insts commited each cycle
system.cpu.commit.committed_per_cycle::overflows            0      0.00%    100.00% # Number of insts commited each cycle
system.cpu.commit.committed_per_cycle::min_value            0                       # Number of insts commited each cycle
system.cpu.commit.committed_per_cycle::max_value            8                       # Number of insts commited each cycle
system.cpu.commit.committed_per_cycle::total        56239                       # Number of insts commited each cycle
system.cpu.commit.fp_insts                          0                       # Number of committed floating point instructions.
system.cpu.commit.function_calls                  609                       # Number of function calls committed.
system.cpu.commit.int_insts                     32730                       # Number of committed integer instructions.
system.cpu.commit.loads                          5438                       # Number of loads committed
system.cpu.commit.membars                          24                       # Number of memory barriers committed
system.cpu.commit.op_class_0::No_OpClass            7      0.02%      0.02% # Class of committed instruction
system.cpu.commit.op_class_0::IntAlu            24199     67.35%     67.37% # Class of committed instruction
system.cpu.commit.op_class_0::IntMult              53      0.15%     67.52% # Class of committed instruction
system.cpu.commit.op_class_0::IntDiv                6      0.02%     67.54% # Class of committed instruction
system.cpu.commit.op_class_0::FloatAdd              0      0.00%     67.54% # Class of committed instruction
system.cpu.commit.op_class_0::FloatCmp              0      0.00%     67.54% # Class of committed instruction
system.cpu.commit.op_class_0::FloatCvt              0      0.00%     67.54% # Class of committed instruction
system.cpu.commit.op_class_0::FloatMult             0      0.00%     67.54% # Class of committed instruction
system.cpu.commit.op_class_0::FloatMultAcc            0      0.00%     67.54% # Class of committed instruction
system.cpu.commit.op_class_0::FloatDiv              0      0.00%     67.54% # Class of committed instruction
system.cpu.commit.op_class_0::FloatMisc             0      0.00%     67.54% # Class of committed instruction
system.cpu.commit.op_class_0::FloatSqrt             0      0.00%     67.54% # Class of committed instruction
system.cpu.commit.op_class_0::SimdAdd              26      0.07%     67.61% # Class of committed instruction
system.cpu.commit.op_class_0::SimdAddAcc            0      0.00%     67.61% # Class of committed instruction
system.cpu.commit.op_class_0::SimdAlu              32      0.09%     67.70% # Class of committed instruction
system.cpu.commit.op_class_0::SimdCmp              28      0.08%     67.78% # Class of committed instruction
system.cpu.commit.op_class_0::SimdCvt               0      0.00%     67.78% # Class of committed instruction
system.cpu.commit.op_class_0::SimdMisc             38      0.11%     67.88% # Class of committed instruction
system.cpu.commit.op_class_0::SimdMult              0      0.00%     67.88% # Class of committed instruction
system.cpu.commit.op_class_0::SimdMultAcc            0      0.00%     67.88% # Class of committed instruction
system.cpu.commit.op_class_0::SimdShift             0      0.00%     67.88% # Class of committed instruction
system.cpu.commit.op_class_0::SimdShiftAcc            0      0.00%     67.88% # Class of committed instruction
system.cpu.commit.op_class_0::SimdDiv               0      0.00%     67.88% # Class of committed instruction
system.cpu.commit.op_class_0::SimdSqrt              0      0.00%     67.88% # Class of committed instruction
system.cpu.commit.op_class_0::SimdFloatAdd            0      0.00%     67.88% # Class of committed instruction
system.cpu.commit.op_class_0::SimdFloatAlu            0      0.00%     67.88% # Class of committed instruction
system.cpu.commit.op_class_0::SimdFloatCmp            0      0.00%     67.88% # Class of committed instruction
system.cpu.commit.op_class_0::SimdFloatCvt            0      0.00%     67.88% # Class of committed instruction
system.cpu.commit.op_class_0::SimdFloatDiv            0      0.00%     67.88% # Class of committed instruction
system.cpu.commit.op_class_0::SimdFloatMisc            0      0.00%     67.88% # Class of committed instruction
system.cpu.commit.op_class_0::SimdFloatMult            0      0.00%     67.88% # Class of committed instruction
system.cpu.commit.op_class_0::SimdFloatMultAcc            0      0.00%     67.88% # Class of committed instruction
system.cpu.commit.op_class_0::SimdFloatSqrt            0      0.00%     67.88% # Class of committed instruction
system.cpu.commit.op_class_0::SimdReduceAdd            0      0.00%     67.88% # Class of committed instruction
system.cpu.commit.op_class_0::SimdReduceAlu            0      0.00%     67.88% # Class of committed instruction
system.cpu.commit.op_class_0::SimdReduceCmp            0      0.00%     67.88% # Class of committed instruction
system.cpu.commit.op_class_0::SimdFloatReduceAdd            0      0.00%     67.88% # Class of committed instruction
system.cpu.commit.op_class_0::SimdFloatReduceCmp            0      0.00%     67.88% # Class of committed instruction
system.cpu.commit.op_class_0::SimdAes               0      0.00%     67.88% # Class of committed instruction
system.cpu.commit.op_class_0::SimdAesMix            0      0.00%     67.88% # Class of committed instruction
system.cpu.commit.op_class_0::SimdSha1Hash            0      0.00%     67.88% # Class of committed instruction
system.cpu.commit.op_class_0::SimdSha1Hash2            0      0.00%     67.88% # Class of committed instruction
system.cpu.commit.op_class_0::SimdSha256Hash            0      0.00%     67.88% # Class of committed instruction
system.cpu.commit.op_class_0::SimdSha256Hash2            0      0.00%     67.88% # Class of committed instruction
system.cpu.commit.op_class_0::SimdShaSigma2            0      0.00%     67.88% # Class of committed instruction
system.cpu.commit.op_class_0::SimdShaSigma3            0      0.00%     67.88% # Class of committed instruction
system.cpu.commit.op_class_0::SimdPredAlu            0      0.00%     67.88% # Class of committed instruction
system.cpu.commit.op_class_0::MemRead            5438     15.14%     83.02% # Class of committed instruction
system.cpu.commit.op_class_0::MemWrite           6102     16.98%    100.00% # Class of committed instruction
system.cpu.commit.op_class_0::FloatMemRead            0      0.00%    100.00% # Class of committed instruction
system.cpu.commit.op_class_0::FloatMemWrite            0      0.00%    100.00% # Class of committed instruction
system.cpu.commit.op_class_0::IprAccess             0      0.00%    100.00% # Class of committed instruction
system.cpu.commit.op_class_0::InstPrefetch            0      0.00%    100.00% # Class of committed instruction
system.cpu.commit.op_class_0::total             35929                       # Class of committed instruction
system.cpu.commit.refs                          11540                       # Number of memory references committed
system.cpu.commit.swp_count                         0                       # Number of s/w prefetches committed
system.cpu.commit.vec_insts                       477                       # Number of committed Vector instructions.
system.cpu.committedInsts                       29355                       # Number of Instructions Simulated
system.cpu.committedOps                         35849                       # Number of Ops (including micro ops) Simulated
system.cpu.cpi                               4.651541                       # CPI: Cycles Per Instruction
system.cpu.cpi_total                         4.651541                       # CPI: Total CPI of All Threads
system.cpu.decode.BlockedCycles                 12693                       # Number of cycles decode is blocked
system.cpu.decode.BranchMispred                   508                       # Number of times decode detected a branch misprediction
system.cpu.decode.BranchResolved                 4120                       # Number of times decode resolved a branch
system.cpu.decode.DecodedInsts                  57187                       # Number of instructions handled by decode
system.cpu.decode.IdleCycles                    34617                       # Number of cycles decode is idle
system.cpu.decode.RunCycles                      9702                       # Number of cycles decode is running
system.cpu.decode.SquashCycles                   1090                       # Number of cycles decode is squashing
system.cpu.decode.SquashedInsts                  1753                       # Number of squashed instructions handled by decode
system.cpu.decode.UnblockCycles                   777                       # Number of cycles decode is unblocking
system.cpu.dtb.accesses                             0                       # DTB accesses
system.cpu.dtb.align_faults                         0                       # Number of TLB faults due to alignment restrictions
system.cpu.dtb.domain_faults                        0                       # Number of TLB faults due to domain restrictions
system.cpu.dtb.flush_entries                        0                       # Number of entries that have been flushed from TLB
system.cpu.dtb.flush_tlb                            0                       # Number of times complete TLB was flushed
system.cpu.dtb.flush_tlb_asid                       0                       # Number of times TLB was flushed by ASID
system.cpu.dtb.flush_tlb_mva                        0                       # Number of times TLB was flushed by MVA
system.cpu.dtb.flush_tlb_mva_asid                   0                       # Number of times TLB was flushed by MVA & ASID
system.cpu.dtb.hits                                 0                       # DTB hits
system.cpu.dtb.inst_accesses                        0                       # ITB inst accesses
system.cpu.dtb.inst_hits                            0                       # ITB inst hits
system.cpu.dtb.inst_misses                          0                       # ITB inst misses
system.cpu.dtb.misses                               0                       # DTB misses
system.cpu.dtb.perms_faults                         0                       # Number of TLB faults due to permissions restrictions
system.cpu.dtb.prefetch_faults                      0                       # Number of TLB faults due to prefetch
system.cpu.dtb.read_accesses                        0                       # DTB read accesses
system.cpu.dtb.read_hits                            0                       # DTB read hits
system.cpu.dtb.read_misses                          0                       # DTB read misses
system.cpu.dtb.stage2_mmu.stage2_tlb.accesses            0                       # DTB accesses
system.cpu.dtb.stage2_mmu.stage2_tlb.align_faults            0                       # Number of TLB faults due to alignment restrictions
system.cpu.dtb.stage2_mmu.stage2_tlb.domain_faults            0                       # Number of TLB faults due to domain restrictions
system.cpu.dtb.stage2_mmu.stage2_tlb.flush_entries            0                       # Number of entries that have been flushed from TLB
system.cpu.dtb.stage2_mmu.stage2_tlb.flush_tlb            0                       # Number of times complete TLB was flushed
system.cpu.dtb.stage2_mmu.stage2_tlb.flush_tlb_asid            0                       # Number of times TLB was flushed by ASID
system.cpu.dtb.stage2_mmu.stage2_tlb.flush_tlb_mva            0                       # Number of times TLB was flushed by MVA
system.cpu.dtb.stage2_mmu.stage2_tlb.flush_tlb_mva_asid            0                       # Number of times TLB was flushed by MVA & ASID
system.cpu.dtb.stage2_mmu.stage2_tlb.hits            0                       # DTB hits
system.cpu.dtb.stage2_mmu.stage2_tlb.inst_accesses            0                       # ITB inst accesses
system.cpu.dtb.stage2_mmu.stage2_tlb.inst_hits            0                       # ITB inst hits
system.cpu.dtb.stage2_mmu.stage2_tlb.inst_misses            0                       # ITB inst misses
system.cpu.dtb.stage2_mmu.stage2_tlb.misses            0                       # DTB misses
system.cpu.dtb.stage2_mmu.stage2_tlb.perms_faults            0                       # Number of TLB faults due to permissions restrictions
system.cpu.dtb.stage2_mmu.stage2_tlb.prefetch_faults            0                       # Number of TLB faults due to prefetch
system.cpu.dtb.stage2_mmu.stage2_tlb.read_accesses            0                       # DTB read accesses
system.cpu.dtb.stage2_mmu.stage2_tlb.read_hits            0                       # DTB read hits
system.cpu.dtb.stage2_mmu.stage2_tlb.read_misses            0                       # DTB read misses
system.cpu.dtb.stage2_mmu.stage2_tlb.walker.walkRequestOrigin_Requested::Data            0                       # Table walker requests started/completed, data/inst
system.cpu.dtb.stage2_mmu.stage2_tlb.walker.walkRequestOrigin_Requested::Inst            0                       # Table walker requests started/completed, data/inst
system.cpu.dtb.stage2_mmu.stage2_tlb.walker.walkRequestOrigin_Requested::total            0                       # Table walker requests started/completed, data/inst
system.cpu.dtb.stage2_mmu.stage2_tlb.walker.walkRequestOrigin_Completed::Data            0                       # Table walker requests started/completed, data/inst
system.cpu.dtb.stage2_mmu.stage2_tlb.walker.walkRequestOrigin_Completed::Inst            0                       # Table walker requests started/completed, data/inst
system.cpu.dtb.stage2_mmu.stage2_tlb.walker.walkRequestOrigin_Completed::total            0                       # Table walker requests started/completed, data/inst
system.cpu.dtb.stage2_mmu.stage2_tlb.walker.walkRequestOrigin::total            0                       # Table walker requests started/completed, data/inst
system.cpu.dtb.stage2_mmu.stage2_tlb.walker.walks            0                       # Table walker walks requested
system.cpu.dtb.stage2_mmu.stage2_tlb.write_accesses            0                       # DTB write accesses
system.cpu.dtb.stage2_mmu.stage2_tlb.write_hits            0                       # DTB write hits
system.cpu.dtb.stage2_mmu.stage2_tlb.write_misses            0                       # DTB write misses
system.cpu.dtb.walker.walkRequestOrigin_Requested::Data            0                       # Table walker requests started/completed, data/inst
system.cpu.dtb.walker.walkRequestOrigin_Requested::Inst            0                       # Table walker requests started/completed, data/inst
system.cpu.dtb.walker.walkRequestOrigin_Requested::total            0                       # Table walker requests started/completed, data/inst
system.cpu.dtb.walker.walkRequestOrigin_Completed::Data            0                       # Table walker requests started/completed, data/inst
system.cpu.dtb.walker.walkRequestOrigin_Completed::Inst            0                       # Table walker requests started/completed, data/inst
system.cpu.dtb.walker.walkRequestOrigin_Completed::total            0                       # Table walker requests started/completed, data/inst
system.cpu.dtb.walker.walkRequestOrigin::total            0                       # Table walker requests started/completed, data/inst
system.cpu.dtb.walker.walks                         0                       # Table walker walks requested
system.cpu.dtb.write_accesses                       0                       # DTB write accesses
system.cpu.dtb.write_hits                           0                       # DTB write hits
system.cpu.dtb.write_misses                         0                       # DTB write misses
system.cpu.fetch.Branches                       12664                       # Number of branches that fetch encountered
system.cpu.fetch.CacheLines                      7960                       # Number of cache lines fetched
system.cpu.fetch.Cycles                         18250                       # Number of cycles fetch has run and was not squashing or blocked
system.cpu.fetch.IcacheSquashes                  1073                       # Number of outstanding Icache misses that were squashed
system.cpu.fetch.IcacheWaitRetryStallCycles           61                       # Number of stall cycles due to full MSHR
system.cpu.fetch.Insts                          54757                       # Number of instructions fetch has processed
system.cpu.fetch.MiscStallCycles                    4                       # Number of cycles fetch has spent waiting on interrupts, or bad addresses, or out of MSHRs
system.cpu.fetch.SquashCycles                    3182                       # Number of cycles fetch has spent squashing
system.cpu.fetch.branchRate                  0.092745                       # Number of branch fetches per cycle
system.cpu.fetch.icacheStallCycles              38973                       # Number of cycles fetch is stalled on an Icache miss
system.cpu.fetch.predictedBranches               5031                       # Number of branches that fetch has predicted taken
system.cpu.fetch.rate                        0.401015                       # Number of inst fetches per cycle
system.cpu.fetch.rateDist::samples              58879                       # Number of instructions fetched each cycle (Total)
system.cpu.fetch.rateDist::mean              1.112230                       # Number of instructions fetched each cycle (Total)
system.cpu.fetch.rateDist::stdev             2.471449                       # Number of instructions fetched each cycle (Total)
system.cpu.fetch.rateDist::underflows               0      0.00%      0.00% # Number of instructions fetched each cycle (Total)
system.cpu.fetch.rateDist::0                    46824     79.53%     79.53% # Number of instructions fetched each cycle (Total)
system.cpu.fetch.rateDist::1                      996      1.69%     81.22% # Number of instructions fetched each cycle (Total)
system.cpu.fetch.rateDist::2                     1221      2.07%     83.29% # Number of instructions fetched each cycle (Total)
system.cpu.fetch.rateDist::3                     1087      1.85%     85.14% # Number of instructions fetched each cycle (Total)
system.cpu.fetch.rateDist::4                     1453      2.47%     87.61% # Number of instructions fetched each cycle (Total)
system.cpu.fetch.rateDist::5                      970      1.65%     89.25% # Number of instructions fetched each cycle (Total)
system.cpu.fetch.rateDist::6                      892      1.51%     90.77% # Number of instructions fetched each cycle (Total)
system.cpu.fetch.rateDist::7                      714      1.21%     91.98% # Number of instructions fetched each cycle (Total)
system.cpu.fetch.rateDist::8                     4722      8.02%    100.00% # Number of instructions fetched each cycle (Total)
system.cpu.fetch.rateDist::overflows                0      0.00%    100.00% # Number of instructions fetched each cycle (Total)
system.cpu.fetch.rateDist::min_value                0                       # Number of instructions fetched each cycle (Total)
system.cpu.fetch.rateDist::max_value                8                       # Number of instructions fetched each cycle (Total)
system.cpu.fetch.rateDist::total                58879                       # Number of instructions fetched each cycle (Total)
system.cpu.icache.prefetcher.num_hwpf_issued         3248                       # number of hwpf issued
system.cpu.icache.prefetcher.pfBufferHit          166                       # number of redundant prefetches already in prefetch queue
system.cpu.icache.prefetcher.pfIdentified         3598                       # number of prefetch candidates identified
system.cpu.icache.prefetcher.pfInCache              0                       # number of redundant prefetches already in cache/mshr dropped
system.cpu.icache.prefetcher.pfRemovedFull            0                       # number of prefetches dropped due to prefetch queue size
system.cpu.icache.prefetcher.pfSpanPage          3060                       # number of prefetches that crossed the page
system.cpu.idleCycles                           77667                       # Total number of cycles that the CPU has spent unscheduled due to idling
system.cpu.iew.branchMispredicts                 1231                       # Number of branch mispredicts detected at execute
system.cpu.iew.exec_branches                     8279                       # Number of branches executed
system.cpu.iew.exec_nop                           157                       # number of nop insts executed
system.cpu.iew.exec_rate                     0.337579                       # Inst execution rate
system.cpu.iew.exec_refs                        14729                       # number of memory reference insts executed
system.cpu.iew.exec_stores                       7063                       # Number of stores executed
system.cpu.iew.exec_swp                             0                       # number of swp insts executed
system.cpu.iew.iewBlockCycles                    2421                       # Number of cycles IEW is blocking
system.cpu.iew.iewDispLoadInsts                  8039                       # Number of dispatched load instructions
system.cpu.iew.iewDispNonSpecInsts                 76                       # Number of dispatched non-speculative instructions
system.cpu.iew.iewDispSquashedInsts               239                       # Number of squashed instructions skipped by dispatch
system.cpu.iew.iewDispStoreInsts                 8382                       # Number of dispatched store instructions
system.cpu.iew.iewDispatchedInsts               51717                       # Number of instructions dispatched to IQ
system.cpu.iew.iewExecLoadInsts                  7666                       # Number of load instructions executed
system.cpu.iew.iewExecSquashedInsts              1424                       # Number of squashed instructions skipped in execute
system.cpu.iew.iewExecutedInsts                 46095                       # Number of executed instructions
system.cpu.iew.iewIQFullEvents                     10                       # Number of times the IQ has become full, causing a stall
system.cpu.iew.iewIdleCycles                        0                       # Number of cycles IEW is idle
system.cpu.iew.iewLSQFullEvents                   646                       # Number of times the LSQ has become full, causing a stall
system.cpu.iew.iewSquashCycles                   1090                       # Number of cycles IEW is squashing
system.cpu.iew.iewUnblockCycles                   649                       # Number of cycles IEW is unblocking
system.cpu.iew.lsq.thread0.blockedLoads             0                       # Number of blocked loads due to partial load-store forwarding
system.cpu.iew.lsq.thread0.cacheBlocked            94                       # Number of times an access to memory failed due to the cache being blocked
system.cpu.iew.lsq.thread0.forwLoads               90                       # Number of loads that had data forwarded from stores
system.cpu.iew.lsq.thread0.ignoredResponses            6                       # Number of memory responses ignored because the instruction is squashed
system.cpu.iew.lsq.thread0.invAddrLoads             0                       # Number of loads ignored due to an invalid address
system.cpu.iew.lsq.thread0.invAddrSwpfs             0                       # Number of software prefetches ignored due to an invalid address
system.cpu.iew.lsq.thread0.memOrderViolation           22                       # Number of memory ordering violations
system.cpu.iew.lsq.thread0.rescheduledLoads          153                       # Number of loads that were rescheduled
system.cpu.iew.lsq.thread0.squashedLoads         2601                       # Number of loads squashed
system.cpu.iew.lsq.thread0.squashedStores         2280                       # Number of stores squashed
system.cpu.iew.memOrderViolationEvents             22                       # Number of memory order violations
system.cpu.iew.predictedNotTakenIncorrect         1088                       # Number of branches that were predicted not taken incorrectly
system.cpu.iew.predictedTakenIncorrect            143                       # Number of branches that were predicted taken incorrectly
system.cpu.iew.wb_consumers                     38768                       # num instructions consuming a value
system.cpu.iew.wb_count                         44375                       # cumulative count of insts written-back
system.cpu.iew.wb_fanout                     0.566988                       # average fanout of values written-back
system.cpu.iew.wb_producers                     21981                       # num instructions producing a value
system.cpu.iew.wb_rate                       0.324982                       # insts written-back per cycle
system.cpu.iew.wb_sent                          45160                       # cumulative count of insts sent to commit
system.cpu.int_regfile_reads                    51342                       # number of integer regfile reads
system.cpu.int_regfile_writes                   31565                       # number of integer regfile writes
system.cpu.ipc                               0.214982                       # IPC: Instructions Per Cycle
system.cpu.ipc_total                         0.214982                       # IPC: Total IPC of All Threads
system.cpu.iq.FU_type_0::No_OpClass                 9      0.02%      0.02% # Type of FU issued
system.cpu.iq.FU_type_0::IntAlu                 31853     67.03%     67.05% # Type of FU issued
system.cpu.iq.FU_type_0::IntMult                   55      0.12%     67.17% # Type of FU issued
system.cpu.iq.FU_type_0::IntDiv                     7      0.01%     67.18% # Type of FU issued
system.cpu.iq.FU_type_0::FloatAdd                   0      0.00%     67.18% # Type of FU issued
system.cpu.iq.FU_type_0::FloatCmp                   0      0.00%     67.18% # Type of FU issued
system.cpu.iq.FU_type_0::FloatCvt                   0      0.00%     67.18% # Type of FU issued
system.cpu.iq.FU_type_0::FloatMult                  0      0.00%     67.18% # Type of FU issued
system.cpu.iq.FU_type_0::FloatMultAcc               0      0.00%     67.18% # Type of FU issued
system.cpu.iq.FU_type_0::FloatDiv                   0      0.00%     67.18% # Type of FU issued
system.cpu.iq.FU_type_0::FloatMisc                  1      0.00%     67.18% # Type of FU issued
system.cpu.iq.FU_type_0::FloatSqrt                  0      0.00%     67.18% # Type of FU issued
system.cpu.iq.FU_type_0::SimdAdd                   35      0.07%     67.26% # Type of FU issued
system.cpu.iq.FU_type_0::SimdAddAcc                 0      0.00%     67.26% # Type of FU issued
system.cpu.iq.FU_type_0::SimdAlu                   41      0.09%     67.34% # Type of FU issued
system.cpu.iq.FU_type_0::SimdCmp                   36      0.08%     67.42% # Type of FU issued
system.cpu.iq.FU_type_0::SimdCvt                    0      0.00%     67.42% # Type of FU issued
system.cpu.iq.FU_type_0::SimdMisc                  47      0.10%     67.52% # Type of FU issued
system.cpu.iq.FU_type_0::SimdMult                   0      0.00%     67.52% # Type of FU issued
system.cpu.iq.FU_type_0::SimdMultAcc                0      0.00%     67.52% # Type of FU issued
system.cpu.iq.FU_type_0::SimdShift                  0      0.00%     67.52% # Type of FU issued
system.cpu.iq.FU_type_0::SimdShiftAcc               0      0.00%     67.52% # Type of FU issued
system.cpu.iq.FU_type_0::SimdDiv                    0      0.00%     67.52% # Type of FU issued
system.cpu.iq.FU_type_0::SimdSqrt                   0      0.00%     67.52% # Type of FU issued
system.cpu.iq.FU_type_0::SimdFloatAdd               0      0.00%     67.52% # Type of FU issued
system.cpu.iq.FU_type_0::SimdFloatAlu               0      0.00%     67.52% # Type of FU issued
system.cpu.iq.FU_type_0::SimdFloatCmp               0      0.00%     67.52% # Type of FU issued
system.cpu.iq.FU_type_0::SimdFloatCvt               0      0.00%     67.52% # Type of FU issued
system.cpu.iq.FU_type_0::SimdFloatDiv               0      0.00%     67.52% # Type of FU issued
system.cpu.iq.FU_type_0::SimdFloatMisc              0      0.00%     67.52% # Type of FU issued
system.cpu.iq.FU_type_0::SimdFloatMult              0      0.00%     67.52% # Type of FU issued
system.cpu.iq.FU_type_0::SimdFloatMultAcc            0      0.00%     67.52% # Type of FU issued
system.cpu.iq.FU_type_0::SimdFloatSqrt              0      0.00%     67.52% # Type of FU issued
system.cpu.iq.FU_type_0::SimdReduceAdd              0      0.00%     67.52% # Type of FU issued
system.cpu.iq.FU_type_0::SimdReduceAlu              0      0.00%     67.52% # Type of FU issued
system.cpu.iq.FU_type_0::SimdReduceCmp              0      0.00%     67.52% # Type of FU issued
system.cpu.iq.FU_type_0::SimdFloatReduceAdd            0      0.00%     67.52% # Type of FU issued
system.cpu.iq.FU_type_0::SimdFloatReduceCmp            0      0.00%     67.52% # Type of FU issued
system.cpu.iq.FU_type_0::SimdAes                    0      0.00%     67.52% # Type of FU issued
system.cpu.iq.FU_type_0::SimdAesMix                 0      0.00%     67.52% # Type of FU issued
system.cpu.iq.FU_type_0::SimdSha1Hash               0      0.00%     67.52% # Type of FU issued
system.cpu.iq.FU_type_0::SimdSha1Hash2              0      0.00%     67.52% # Type of FU issued
system.cpu.iq.FU_type_0::SimdSha256Hash             0      0.00%     67.52% # Type of FU issued
system.cpu.iq.FU_type_0::SimdSha256Hash2            0      0.00%     67.52% # Type of FU issued
system.cpu.iq.FU_type_0::SimdShaSigma2              0      0.00%     67.52% # Type of FU issued
system.cpu.iq.FU_type_0::SimdShaSigma3              0      0.00%     67.52% # Type of FU issued
system.cpu.iq.FU_type_0::SimdPredAlu                0      0.00%     67.52% # Type of FU issued
system.cpu.iq.FU_type_0::MemRead                 7975     16.78%     84.30% # Type of FU issued
system.cpu.iq.FU_type_0::MemWrite                7460     15.70%    100.00% # Type of FU issued
system.cpu.iq.FU_type_0::FloatMemRead               0      0.00%    100.00% # Type of FU issued
system.cpu.iq.FU_type_0::FloatMemWrite              0      0.00%    100.00% # Type of FU issued
system.cpu.iq.FU_type_0::IprAccess                  0      0.00%    100.00% # Type of FU issued
system.cpu.iq.FU_type_0::InstPrefetch               0      0.00%    100.00% # Type of FU issued
system.cpu.iq.FU_type_0::total                  47519                       # Type of FU issued
system.cpu.iq.fp_alu_accesses                       0                       # Number of floating point alu accesses
system.cpu.iq.fp_inst_queue_reads                   0                       # Number of floating instruction queue reads
system.cpu.iq.fp_inst_queue_wakeup_accesses            0                       # Number of floating instruction queue wakeup accesses
system.cpu.iq.fp_inst_queue_writes                  0                       # Number of floating instruction queue writes
system.cpu.iq.fu_busy_cnt                         720                       # FU busy when requested
system.cpu.iq.fu_busy_rate                   0.015152                       # FU busy rate (busy events/executed inst)
system.cpu.iq.fu_full::No_OpClass                   0      0.00%      0.00% # attempts to use FU when none available
system.cpu.iq.fu_full::IntAlu                     220     30.56%     30.56% # attempts to use FU when none available
system.cpu.iq.fu_full::IntMult                      0      0.00%     30.56% # attempts to use FU when none available
system.cpu.iq.fu_full::IntDiv                       0      0.00%     30.56% # attempts to use FU when none available
system.cpu.iq.fu_full::FloatAdd                     0      0.00%     30.56% # attempts to use FU when none available
system.cpu.iq.fu_full::FloatCmp                     0      0.00%     30.56% # attempts to use FU when none available
system.cpu.iq.fu_full::FloatCvt                     0      0.00%     30.56% # attempts to use FU when none available
system.cpu.iq.fu_full::FloatMult                    0      0.00%     30.56% # attempts to use FU when none available
system.cpu.iq.fu_full::FloatMultAcc                 0      0.00%     30.56% # attempts to use FU when none available
system.cpu.iq.fu_full::FloatDiv                     0      0.00%     30.56% # attempts to use FU when none available
system.cpu.iq.fu_full::FloatMisc                    0      0.00%     30.56% # attempts to use FU when none available
system.cpu.iq.fu_full::FloatSqrt                    0      0.00%     30.56% # attempts to use FU when none available
system.cpu.iq.fu_full::SimdAdd                      0      0.00%     30.56% # attempts to use FU when none available
system.cpu.iq.fu_full::SimdAddAcc                   0      0.00%     30.56% # attempts to use FU when none available
system.cpu.iq.fu_full::SimdAlu                      2      0.28%     30.83% # attempts to use FU when none available
system.cpu.iq.fu_full::SimdCmp                      3      0.42%     31.25% # attempts to use FU when none available
system.cpu.iq.fu_full::SimdCvt                      0      0.00%     31.25% # attempts to use FU when none available
system.cpu.iq.fu_full::SimdMisc                     0      0.00%     31.25% # attempts to use FU when none available
system.cpu.iq.fu_full::SimdMult                     0      0.00%     31.25% # attempts to use FU when none available
system.cpu.iq.fu_full::SimdMultAcc                  0      0.00%     31.25% # attempts to use FU when none available
system.cpu.iq.fu_full::SimdShift                    0      0.00%     31.25% # attempts to use FU when none available
system.cpu.iq.fu_full::SimdShiftAcc                 0      0.00%     31.25% # attempts to use FU when none available
system.cpu.iq.fu_full::SimdDiv                      0      0.00%     31.25% # attempts to use FU when none available
system.cpu.iq.fu_full::SimdSqrt                     0      0.00%     31.25% # attempts to use FU when none available
system.cpu.iq.fu_full::SimdFloatAdd                 0      0.00%     31.25% # attempts to use FU when none available
system.cpu.iq.fu_full::SimdFloatAlu                 0      0.00%     31.25% # attempts to use FU when none available
system.cpu.iq.fu_full::SimdFloatCmp                 0      0.00%     31.25% # attempts to use FU when none available
system.cpu.iq.fu_full::SimdFloatCvt                 0      0.00%     31.25% # attempts to use FU when none available
system.cpu.iq.fu_full::SimdFloatDiv                 0      0.00%     31.25% # attempts to use FU when none available
system.cpu.iq.fu_full::SimdFloatMisc                0      0.00%     31.25% # attempts to use FU when none available
system.cpu.iq.fu_full::SimdFloatMult                0      0.00%     31.25% # attempts to use FU when none available
system.cpu.iq.fu_full::SimdFloatMultAcc             0      0.00%     31.25% # attempts to use FU when none available
system.cpu.iq.fu_full::SimdFloatSqrt                0      0.00%     31.25% # attempts to use FU when none available
system.cpu.iq.fu_full::SimdReduceAdd                0      0.00%     31.25% # attempts to use FU when none available
system.cpu.iq.fu_full::SimdReduceAlu                0      0.00%     31.25% # attempts to use FU when none available
system.cpu.iq.fu_full::SimdReduceCmp                0      0.00%     31.25% # attempts to use FU when none available
system.cpu.iq.fu_full::SimdFloatReduceAdd            0      0.00%     31.25% # attempts to use FU when none available
system.cpu.iq.fu_full::SimdFloatReduceCmp            0      0.00%     31.25% # attempts to use FU when none available
system.cpu.iq.fu_full::SimdAes                      0      0.00%     31.25% # attempts to use FU when none available
system.cpu.iq.fu_full::SimdAesMix                   0      0.00%     31.25% # attempts to use FU when none available
system.cpu.iq.fu_full::SimdSha1Hash                 0      0.00%     31.25% # attempts to use FU when none available
system.cpu.iq.fu_full::SimdSha1Hash2                0      0.00%     31.25% # attempts to use FU when none available
system.cpu.iq.fu_full::SimdSha256Hash               0      0.00%     31.25% # attempts to use FU when none available
system.cpu.iq.fu_full::SimdSha256Hash2              0      0.00%     31.25% # attempts to use FU when none available
system.cpu.iq.fu_full::SimdShaSigma2                0      0.00%     31.25% # attempts to use FU when none available
system.cpu.iq.fu_full::SimdShaSigma3                0      0.00%     31.25% # attempts to use FU when none available
system.cpu.iq.fu_full::SimdPredAlu                  0      0.00%     31.25% # attempts to use FU when none available
system.cpu.iq.fu_full::MemRead                    210     29.17%     60.42% # attempts to use FU when none available
system.cpu.iq.fu_full::MemWrite                   285     39.58%    100.00% # attempts to use FU when none available
system.cpu.iq.fu_full::FloatMemRead                 0      0.00%    100.00% # attempts to use FU when none available
system.cpu.iq.fu_full::FloatMemWrite                0      0.00%    100.00% # attempts to use FU when none available
system.cpu.iq.fu_full::IprAccess                    0      0.00%    100.00% # attempts to use FU when none available
system.cpu.iq.fu_full::InstPrefetch                 0      0.00%    100.00% # attempts to use FU when none available
system.cpu.iq.int_alu_accesses                  47328                       # Number of integer alu accesses
system.cpu.iq.int_inst_queue_reads             153025                       # Number of integer instruction queue reads
system.cpu.iq.int_inst_queue_wakeup_accesses        43698                       # Number of integer instruction queue wakeup accesses
system.cpu.iq.int_inst_queue_writes             65554                       # Number of integer instruction queue writes
system.cpu.iq.iqInstsAdded                      51484                       # Number of instructions added to the IQ (excludes non-spec)
system.cpu.iq.iqInstsIssued                     47519                       # Number of instructions issued
system.cpu.iq.iqNonSpecInstsAdded                  76                       # Number of non-speculative instructions added to the IQ
system.cpu.iq.iqSquashedInstsExamined           15710                       # Number of squashed instructions iterated over during squash; mainly for profiling
system.cpu.iq.iqSquashedInstsIssued               289                       # Number of squashed instructions issued
system.cpu.iq.iqSquashedNonSpecRemoved             28                       # Number of squashed non-spec instructions that were removed
system.cpu.iq.iqSquashedOperandsExamined        10781                       # Number of squashed operands that are examined and possibly removed from graph
system.cpu.iq.issued_per_cycle::samples         58879                       # Number of insts issued each cycle
system.cpu.iq.issued_per_cycle::mean         0.807062                       # Number of insts issued each cycle
system.cpu.iq.issued_per_cycle::stdev        1.616478                       # Number of insts issued each cycle
system.cpu.iq.issued_per_cycle::underflows            0      0.00%      0.00% # Number of insts issued each cycle
system.cpu.iq.issued_per_cycle::0               42737     72.58%     72.58% # Number of insts issued each cycle
system.cpu.iq.issued_per_cycle::1                4366      7.42%     80.00% # Number of insts issued each cycle
system.cpu.iq.issued_per_cycle::2                3472      5.90%     85.90% # Number of insts issued each cycle
system.cpu.iq.issued_per_cycle::3                2924      4.97%     90.86% # Number of insts issued each cycle
system.cpu.iq.issued_per_cycle::4                2185      3.71%     94.57% # Number of insts issued each cycle
system.cpu.iq.issued_per_cycle::5                1553      2.64%     97.21% # Number of insts issued each cycle
system.cpu.iq.issued_per_cycle::6                 908      1.54%     98.75% # Number of insts issued each cycle
system.cpu.iq.issued_per_cycle::7                 388      0.66%     99.41% # Number of insts issued each cycle
system.cpu.iq.issued_per_cycle::8                 346      0.59%    100.00% # Number of insts issued each cycle
system.cpu.iq.issued_per_cycle::overflows            0      0.00%    100.00% # Number of insts issued each cycle
system.cpu.iq.issued_per_cycle::min_value            0                       # Number of insts issued each cycle
system.cpu.iq.issued_per_cycle::max_value            8                       # Number of insts issued each cycle
system.cpu.iq.issued_per_cycle::total           58879                       # Number of insts issued each cycle
system.cpu.iq.rate                           0.348007                       # Inst issue rate
system.cpu.iq.vec_alu_accesses                    902                       # Number of vector alu accesses
system.cpu.iq.vec_inst_queue_reads               1901                       # Number of vector instruction queue reads
system.cpu.iq.vec_inst_queue_wakeup_accesses          677                       # Number of vector instruction queue wakeup accesses
system.cpu.iq.vec_inst_queue_writes              1737                       # Number of vector instruction queue writes
system.cpu.itb.accesses                             0                       # DTB accesses
system.cpu.itb.align_faults                         0                       # Number of TLB faults due to alignment restrictions
system.cpu.itb.domain_faults                        0                       # Number of TLB faults due to domain restrictions
system.cpu.itb.flush_entries                        0                       # Number of entries that have been flushed from TLB
system.cpu.itb.flush_tlb                            0                       # Number of times complete TLB was flushed
system.cpu.itb.flush_tlb_asid                       0                       # Number of times TLB was flushed by ASID
system.cpu.itb.flush_tlb_mva                        0                       # Number of times TLB was flushed by MVA
system.cpu.itb.flush_tlb_mva_asid                   0                       # Number of times TLB was flushed by MVA & ASID
system.cpu.itb.hits                                 0                       # DTB hits
system.cpu.itb.inst_accesses                        0                       # ITB inst accesses
system.cpu.itb.inst_hits                            0                       # ITB inst hits
system.cpu.itb.inst_misses                          0                       # ITB inst misses
system.cpu.itb.misses                               0                       # DTB misses
system.cpu.itb.perms_faults                         0                       # Number of TLB faults due to permissions restrictions
system.cpu.itb.prefetch_faults                      0                       # Number of TLB faults due to prefetch
system.cpu.itb.read_accesses                        0                       # DTB read accesses
system.cpu.itb.read_hits                            0                       # DTB read hits
system.cpu.itb.read_misses                          0                       # DTB read misses
system.cpu.itb.stage2_mmu.stage2_tlb.accesses            0                       # DTB accesses
system.cpu.itb.stage2_mmu.stage2_tlb.align_faults            0                       # Number of TLB faults due to alignment restrictions
system.cpu.itb.stage2_mmu.stage2_tlb.domain_faults            0                       # Number of TLB faults due to domain restrictions
system.cpu.itb.stage2_mmu.stage2_tlb.flush_entries            0                       # Number of entries that have been flushed from TLB
system.cpu.itb.stage2_mmu.stage2_tlb.flush_tlb            0                       # Number of times complete TLB was flushed
system.cpu.itb.stage2_mmu.stage2_tlb.flush_tlb_asid            0                       # Number of times TLB was flushed by ASID
system.cpu.itb.stage2_mmu.stage2_tlb.flush_tlb_mva            0                       # Number of times TLB was flushed by MVA
system.cpu.itb.stage2_mmu.stage2_tlb.flush_tlb_mva_asid            0                       # Number of times TLB was flushed by MVA & ASID
system.cpu.itb.stage2_mmu.stage2_tlb.hits            0                       # DTB hits
system.cpu.itb.stage2_mmu.stage2_tlb.inst_accesses            0                       # ITB inst accesses
system.cpu.itb.stage2_mmu.stage2_tlb.inst_hits            0                       # ITB inst hits
system.cpu.itb.stage2_mmu.stage2_tlb.inst_misses            0                       # ITB inst misses
system.cpu.itb.stage2_mmu.stage2_tlb.misses            0                       # DTB misses
system.cpu.itb.stage2_mmu.stage2_tlb.perms_faults            0                       # Number of TLB faults due to permissions restrictions
system.cpu.itb.stage2_mmu.stage2_tlb.prefetch_faults            0                       # Number of TLB faults due to prefetch
system.cpu.itb.stage2_mmu.stage2_tlb.read_accesses            0                       # DTB read accesses
system.cpu.itb.stage2_mmu.stage2_tlb.read_hits            0                       # DTB read hits
system.cpu.itb.stage2_mmu.stage2_tlb.read_misses            0                       # DTB read misses
system.cpu.itb.stage2_mmu.stage2_tlb.walker.walkRequestOrigin_Requested::Data            0                       # Table walker requests started/completed, data/inst
system.cpu.itb.stage2_mmu.stage2_tlb.walker.walkRequestOrigin_Requested::Inst            0                       # Table walker requests started/completed, data/inst
system.cpu.itb.stage2_mmu.stage2_tlb.walker.walkRequestOrigin_Requested::total            0                       # Table walker requests started/completed, data/inst
system.cpu.itb.stage2_mmu.stage2_tlb.walker.walkRequestOrigin_Completed::Data            0                       # Table walker requests started/completed, data/inst
system.cpu.itb.stage2_mmu.stage2_tlb.walker.walkRequestOrigin_Completed::Inst            0                       # Table walker requests started/completed, data/inst
system.cpu.itb.stage2_mmu.stage2_tlb.walker.walkRequestOrigin_Completed::total            0                       # Table walker requests started/completed, data/inst
system.cpu.itb.stage2_mmu.stage2_tlb.walker.walkRequestOrigin::total            0                       # Table walker requests started/completed, data/inst
system.cpu.itb.stage2_mmu.stage2_tlb.walker.walks            0                       # Table walker walks requested
system.cpu.itb.stage2_mmu.stage2_tlb.write_accesses            0                       # DTB write accesses
system.cpu.itb.stage2_mmu.stage2_tlb.write_hits            0                       # DTB write hits
system.cpu.itb.stage2_mmu.stage2_tlb.write_misses            0                       # DTB write misses
system.cpu.itb.walker.walkRequestOrigin_Requested::Data            0                       # Table walker requests started/completed, data/inst
system.cpu.itb.walker.walkRequestOrigin_Requested::Inst            0                       # Table walker requests started/completed, data/inst
system.cpu.itb.walker.walkRequestOrigin_Requested::total            0                       # Table walker requests started/completed, data/inst
system.cpu.itb.walker.walkRequestOrigin_Completed::Data            0                       # Table walker requests started/completed, data/inst
system.cpu.itb.walker.walkRequestOrigin_Completed::Inst            0                       # Table walker requests started/completed, data/inst
system.cpu.itb.walker.walkRequestOrigin_Completed::total            0                       # Table walker requests started/completed, data/inst
system.cpu.itb.walker.walkRequestOrigin::total            0                       # Table walker requests started/completed, data/inst
system.cpu.itb.walker.walks                         0                       # Table walker walks requested
system.cpu.itb.write_accesses                       0                       # DTB write accesses
system.cpu.itb.write_hits                           0                       # DTB write hits
system.cpu.itb.write_misses                         0                       # DTB write misses
system.cpu.memDep0.conflictingLoads                18                       # Number of conflicting loads.
system.cpu.memDep0.conflictingStores               93                       # Number of conflicting stores.
system.cpu.memDep0.insertedLoads                 8039                       # Number of loads inserted to the mem dependence unit.
system.cpu.memDep0.insertedStores                8382                       # Number of stores inserted to the mem dependence unit.
system.cpu.misc_regfile_reads                   35707                       # number of misc regfile reads
system.cpu.misc_regfile_writes                     97                       # number of misc regfile writes
system.cpu.numCycles                           136546                       # number of cpu cycles simulated
system.cpu.numWorkItemsCompleted                    0                       # number of work items this cpu completed
system.cpu.numWorkItemsStarted                      0                       # number of work items this cpu started
system.cpu.rename.BlockCycles                    3464                       # Number of cycles rename is blocking
system.cpu.rename.CommittedMaps                 33835                       # Number of HB maps that are committed
system.cpu.rename.IQFullEvents                    231                       # Number of times rename has blocked due to IQ full
system.cpu.rename.IdleCycles                    35483                       # Number of cycles rename is idle
system.cpu.rename.LQFullEvents                     25                       # Number of times rename has blocked due to LQ full
system.cpu.rename.ROBFullEvents                     8                       # Number of times rename has blocked due to ROB full
system.cpu.rename.RenameLookups                 79377                       # Number of register rename lookups that rename has made
system.cpu.rename.RenamedInsts                  54824                       # Number of instructions processed by rename
system.cpu.rename.RenamedOperands               51111                       # Number of destination operands rename has renamed
system.cpu.rename.RunCycles                      9580                       # Number of cycles rename is running
system.cpu.rename.SQFullEvents                   1475                       # Number of times rename has blocked due to SQ full
system.cpu.rename.SquashCycles                   1090                       # Number of cycles rename is squashing
system.cpu.rename.UnblockCycles                  2052                       # Number of cycles rename is unblocking
system.cpu.rename.UndoneMaps                    17276                       # Number of HB maps that are undone due to squashing
system.cpu.rename.int_rename_lookups            61233                       # Number of integer rename lookups
system.cpu.rename.serializeStallCycles           7210                       # count of cycles rename stalled for serializing inst
system.cpu.rename.serializingInsts                305                       # count of serializing insts renamed
system.cpu.rename.skidInsts                      3410                       # count of insts added to the skid buffer
system.cpu.rename.tempSerializingInsts             77                       # count of temporary serializing insts renamed
system.cpu.rename.vec_rename_lookups             1236                       # Number of vector rename lookups
system.cpu.rob.rob_reads                       106434                       # The number of ROB reads
system.cpu.rob.rob_writes                      106098                       # The number of ROB writes
system.cpu.timesIdled                            1130                       # Number of times that the entire CPU went into an idle state and unscheduled itself
system.cpu.vec_regfile_reads                      737                       # number of vector regfile reads
system.cpu.vec_regfile_writes                     184                       # number of vector regfile writes
system.cpu.workload.numSyscalls                    23                       # Number of system calls
system.membus.snoop_filter.hit_multi_requests            0                       # Number of requests hitting in the snoop filter with multiple (>1) holders of the requested data.
system.membus.snoop_filter.hit_multi_snoops            0                       # Number of snoops hitting in the snoop filter with multiple (>1) holders of the requested data.
system.membus.snoop_filter.hit_single_requests            0                       # Number of requests hitting in the snoop filter with a single holder of the requested data.
system.membus.snoop_filter.hit_single_snoops            0                       # Number of snoops hitting in the snoop filter with a single holder of the requested data.
system.membus.snoop_filter.tot_requests          1304                       # Total number of requests made to the snoop filter.
system.membus.snoop_filter.tot_snoops               0                       # Total number of snoops made to the snoop filter.
system.tol2bus.snoop_filter.hit_multi_requests            2                       # Number of requests hitting in the snoop filter with multiple (>1) holders of the requested data.
system.tol2bus.snoop_filter.hit_multi_snoops            0                       # Number of snoops hitting in the snoop filter with multiple (>1) holders of the requested data.
system.tol2bus.snoop_filter.hit_single_requests         2268                       # Number of requests hitting in the snoop filter with a single holder of the requested data.
system.tol2bus.snoop_filter.hit_single_snoops            0                       # Number of snoops hitting in the snoop filter with a single holder of the requested data.
system.tol2bus.snoop_filter.tot_requests         5014                       # Total number of requests made to the snoop filter.
system.tol2bus.snoop_filter.tot_snoops              0                       # Total number of snoops made to the snoop filter.
system.membus.trans_dist::ReadResp               1062                       # Transaction distribution
system.membus.trans_dist::ReadExReq               178                       # Transaction distribution
system.membus.trans_dist::ReadExResp              178                       # Transaction distribution
system.membus.trans_dist::ReadSharedReq          1063                       # Transaction distribution
system.membus.trans_dist::InvalidateReq            63                       # Transaction distribution
system.membus.pkt_count_system.l2.mem_side::system.mem_ctrls.port         2544                       # Packet count per connected master and slave (bytes)
system.membus.pkt_count::total                   2544                       # Packet count per connected master and slave (bytes)
system.membus.pkt_size_system.l2.mem_side::system.mem_ctrls.port        79360                       # Cumulative packet size per connected master and slave (bytes)
system.membus.pkt_size::total                   79360                       # Cumulative packet size per connected master and slave (bytes)
system.membus.snoops                                0                       # Total snoops (count)
system.membus.snoopTraffic                          0                       # Total snoop traffic (bytes)
system.membus.snoop_fanout::samples              1304                       # Request fanout histogram
system.membus.snoop_fanout::mean                    0                       # Request fanout histogram
system.membus.snoop_fanout::stdev                   0                       # Request fanout histogram
system.membus.snoop_fanout::underflows              0      0.00%      0.00% # Request fanout histogram
system.membus.snoop_fanout::0                    1304    100.00%    100.00% # Request fanout histogram
system.membus.snoop_fanout::1                       0      0.00%    100.00% # Request fanout histogram
system.membus.snoop_fanout::overflows               0      0.00%    100.00% # Request fanout histogram
system.membus.snoop_fanout::min_value               0                       # Request fanout histogram
system.membus.snoop_fanout::max_value               0                       # Request fanout histogram
system.membus.snoop_fanout::total                1304                       # Request fanout histogram
system.membus.reqLayer0.occupancy             1626000                       # Layer occupancy (ticks)
system.membus.reqLayer0.utilization               2.4                       # Layer utilization (%)
system.membus.respLayer1.occupancy            6573000                       # Layer occupancy (ticks)
system.membus.respLayer1.utilization              9.6                       # Layer utilization (%)
system.membus.power_state.pwrStateResidencyTicks::UNDEFINED     68272500                       # Cumulative time (in ticks) in various power states
system.tol2bus.trans_dist::ReadResp              2501                       # Transaction distribution
system.tol2bus.trans_dist::WritebackDirty            5                       # Transaction distribution
system.tol2bus.trans_dist::WritebackClean         2254                       # Transaction distribution
system.tol2bus.trans_dist::CleanEvict               9                       # Transaction distribution
system.tol2bus.trans_dist::ReadExReq              180                       # Transaction distribution
system.tol2bus.trans_dist::ReadExResp             180                       # Transaction distribution
system.tol2bus.trans_dist::ReadCleanReq          2320                       # Transaction distribution
system.tol2bus.trans_dist::ReadSharedReq          183                       # Transaction distribution
system.tol2bus.trans_dist::InvalidateReq           63                       # Transaction distribution
system.tol2bus.trans_dist::InvalidateResp           63                       # Transaction distribution
system.tol2bus.pkt_count_system.cpu.icache.mem_side::system.l2.cpu_side         6892                       # Packet count per connected master and slave (bytes)
system.tol2bus.pkt_count_system.cpu.dcache.mem_side::system.l2.cpu_side          866                       # Packet count per connected master and slave (bytes)
system.tol2bus.pkt_count::total                  7758                       # Packet count per connected master and slave (bytes)
system.tol2bus.pkt_size_system.cpu.icache.mem_side::system.l2.cpu_side       292608                       # Cumulative packet size per connected master and slave (bytes)
system.tol2bus.pkt_size_system.cpu.dcache.mem_side::system.l2.cpu_side        23552                       # Cumulative packet size per connected master and slave (bytes)
system.tol2bus.pkt_size::total                 316160                       # Cumulative packet size per connected master and slave (bytes)
system.tol2bus.snoops                               0                       # Total snoops (count)
system.tol2bus.snoopTraffic                         0                       # Total snoop traffic (bytes)
system.tol2bus.snoop_fanout::samples             2746                       # Request fanout histogram
system.tol2bus.snoop_fanout::mean            0.000728                       # Request fanout histogram
system.tol2bus.snoop_fanout::stdev           0.026983                       # Request fanout histogram
system.tol2bus.snoop_fanout::underflows             0      0.00%      0.00% # Request fanout histogram
system.tol2bus.snoop_fanout::0                   2744     99.93%     99.93% # Request fanout histogram
system.tol2bus.snoop_fanout::1                      2      0.07%    100.00% # Request fanout histogram
system.tol2bus.snoop_fanout::2                      0      0.00%    100.00% # Request fanout histogram
system.tol2bus.snoop_fanout::overflows              0      0.00%    100.00% # Request fanout histogram
system.tol2bus.snoop_fanout::min_value              0                       # Request fanout histogram
system.tol2bus.snoop_fanout::max_value              1                       # Request fanout histogram
system.tol2bus.snoop_fanout::total               2746                       # Request fanout histogram
system.tol2bus.reqLayer0.occupancy            4996262                       # Layer occupancy (ticks)
system.tol2bus.reqLayer0.utilization              7.3                       # Layer utilization (%)
system.tol2bus.respLayer1.occupancy            577996                       # Layer occupancy (ticks)
system.tol2bus.respLayer1.utilization             0.8                       # Layer utilization (%)
system.tol2bus.respLayer0.occupancy           3477000                       # Layer occupancy (ticks)
system.tol2bus.respLayer0.utilization             5.1                       # Layer utilization (%)
system.tol2bus.power_state.pwrStateResidencyTicks::UNDEFINED     68272500                       # Cumulative time (in ticks) in various power states
system.voltage_domain.voltage                       1                       # Voltage in Volts
system.clk_domain.clock                          1000                       # Clock period in ticks
system.l2.demand_hits::.cpu.inst                  739                       # number of demand (read+write) hits
system.l2.demand_hits::.cpu.data                    5                       # number of demand (read+write) hits
system.l2.demand_hits::.cpu.icache.prefetcher          697                       # number of demand (read+write) hits
system.l2.demand_hits::total                     1441                       # number of demand (read+write) hits
system.l2.overall_hits::.cpu.inst                 739                       # number of overall hits
system.l2.overall_hits::.cpu.data                   5                       # number of overall hits
system.l2.overall_hits::.cpu.icache.prefetcher          697                       # number of overall hits
system.l2.overall_hits::total                    1441                       # number of overall hits
system.l2.demand_misses::.cpu.inst                884                       # number of demand (read+write) misses
system.l2.demand_misses::.cpu.data                358                       # number of demand (read+write) misses
system.l2.demand_misses::total                   1242                       # number of demand (read+write) misses
system.l2.overall_misses::.cpu.inst               884                       # number of overall misses
system.l2.overall_misses::.cpu.data               358                       # number of overall misses
system.l2.overall_misses::total                  1242                       # number of overall misses
system.l2.demand_miss_latency::.cpu.inst     68636000                       # number of demand (read+write) miss cycles
system.l2.demand_miss_latency::.cpu.data     30074000                       # number of demand (read+write) miss cycles
system.l2.demand_miss_latency::total         98710000                       # number of demand (read+write) miss cycles
system.l2.overall_miss_latency::.cpu.inst     68636000                       # number of overall miss cycles
system.l2.overall_miss_latency::.cpu.data     30074000                       # number of overall miss cycles
system.l2.overall_miss_latency::total        98710000                       # number of overall miss cycles
system.l2.demand_accesses::.cpu.inst             1623                       # number of demand (read+write) accesses
system.l2.demand_accesses::.cpu.data              363                       # number of demand (read+write) accesses
system.l2.demand_accesses::.cpu.icache.prefetcher          697                       # number of demand (read+write) accesses
system.l2.demand_accesses::total                 2683                       # number of demand (read+write) accesses
system.l2.overall_accesses::.cpu.inst            1623                       # number of overall (read+write) accesses
system.l2.overall_accesses::.cpu.data             363                       # number of overall (read+write) accesses
system.l2.overall_accesses::.cpu.icache.prefetcher          697                       # number of overall (read+write) accesses
system.l2.overall_accesses::total                2683                       # number of overall (read+write) accesses
system.l2.demand_miss_rate::.cpu.inst        0.544670                       # miss rate for demand accesses
system.l2.demand_miss_rate::.cpu.data        0.986226                       # miss rate for demand accesses
system.l2.demand_miss_rate::total            0.462915                       # miss rate for demand accesses
system.l2.overall_miss_rate::.cpu.inst       0.544670                       # miss rate for overall accesses
system.l2.overall_miss_rate::.cpu.data       0.986226                       # miss rate for overall accesses
system.l2.overall_miss_rate::total           0.462915                       # miss rate for overall accesses
system.l2.demand_avg_miss_latency::.cpu.inst 77642.533937                       # average overall miss latency
system.l2.demand_avg_miss_latency::.cpu.data 84005.586592                       # average overall miss latency
system.l2.demand_avg_miss_latency::total 79476.650564                       # average overall miss latency
system.l2.overall_avg_miss_latency::.cpu.inst 77642.533937                       # average overall miss latency
system.l2.overall_avg_miss_latency::.cpu.data 84005.586592                       # average overall miss latency
system.l2.overall_avg_miss_latency::total 79476.650564                       # average overall miss latency
system.l2.blocked_cycles::no_mshrs                  0                       # number of cycles access was blocked
system.l2.blocked_cycles::no_targets                0                       # number of cycles access was blocked
system.l2.blocked::no_mshrs                         0                       # number of cycles access was blocked
system.l2.blocked::no_targets                       0                       # number of cycles access was blocked
system.l2.avg_blocked_cycles::no_mshrs            nan                       # average number of cycles each access was blocked
system.l2.avg_blocked_cycles::no_targets          nan                       # average number of cycles each access was blocked
system.l2.demand_mshr_misses::.cpu.inst           884                       # number of demand (read+write) MSHR misses
system.l2.demand_mshr_misses::.cpu.data           358                       # number of demand (read+write) MSHR misses
system.l2.demand_mshr_misses::total              1242                       # number of demand (read+write) MSHR misses
system.l2.overall_mshr_misses::.cpu.inst          884                       # number of overall MSHR misses
system.l2.overall_mshr_misses::.cpu.data          358                       # number of overall MSHR misses
system.l2.overall_mshr_misses::total             1242                       # number of overall MSHR misses
system.l2.demand_mshr_miss_latency::.cpu.inst     59816000                       # number of demand (read+write) MSHR miss cycles
system.l2.demand_mshr_miss_latency::.cpu.data     26493501                       # number of demand (read+write) MSHR miss cycles
system.l2.demand_mshr_miss_latency::total     86309501                       # number of demand (read+write) MSHR miss cycles
system.l2.overall_mshr_miss_latency::.cpu.inst     59816000                       # number of overall MSHR miss cycles
system.l2.overall_mshr_miss_latency::.cpu.data     26493501                       # number of overall MSHR miss cycles
system.l2.overall_mshr_miss_latency::total     86309501                       # number of overall MSHR miss cycles
system.l2.demand_mshr_miss_rate::.cpu.inst     0.544670                       # mshr miss rate for demand accesses
system.l2.demand_mshr_miss_rate::.cpu.data     0.986226                       # mshr miss rate for demand accesses
system.l2.demand_mshr_miss_rate::total       0.462915                       # mshr miss rate for demand accesses
system.l2.overall_mshr_miss_rate::.cpu.inst     0.544670                       # mshr miss rate for overall accesses
system.l2.overall_mshr_miss_rate::.cpu.data     0.986226                       # mshr miss rate for overall accesses
system.l2.overall_mshr_miss_rate::total      0.462915                       # mshr miss rate for overall accesses
system.l2.demand_avg_mshr_miss_latency::.cpu.inst 67665.158371                       # average overall mshr miss latency
system.l2.demand_avg_mshr_miss_latency::.cpu.data 74004.192737                       # average overall mshr miss latency
system.l2.demand_avg_mshr_miss_latency::total 69492.351852                       # average overall mshr miss latency
system.l2.overall_avg_mshr_miss_latency::.cpu.inst 67665.158371                       # average overall mshr miss latency
system.l2.overall_avg_mshr_miss_latency::.cpu.data 74004.192737                       # average overall mshr miss latency
system.l2.overall_avg_mshr_miss_latency::total 69492.351852                       # average overall mshr miss latency
system.l2.replacements                              0                       # number of replacements
system.l2.WritebackDirty_hits::.writebacks            5                       # number of WritebackDirty hits
system.l2.WritebackDirty_hits::total                5                       # number of WritebackDirty hits
system.l2.WritebackDirty_accesses::.writebacks            5                       # number of WritebackDirty accesses(hits+misses)
system.l2.WritebackDirty_accesses::total            5                       # number of WritebackDirty accesses(hits+misses)
system.l2.WritebackClean_hits::.writebacks         2252                       # number of WritebackClean hits
system.l2.WritebackClean_hits::total             2252                       # number of WritebackClean hits
system.l2.WritebackClean_accesses::.writebacks         2252                       # number of WritebackClean accesses(hits+misses)
system.l2.WritebackClean_accesses::total         2252                       # number of WritebackClean accesses(hits+misses)
system.l2.ReadExReq_hits::.cpu.data                 2                       # number of ReadExReq hits
system.l2.ReadExReq_hits::total                     2                       # number of ReadExReq hits
system.l2.ReadExReq_misses::.cpu.data             178                       # number of ReadExReq misses
system.l2.ReadExReq_misses::total                 178                       # number of ReadExReq misses
system.l2.ReadExReq_miss_latency::.cpu.data     14792000                       # number of ReadExReq miss cycles
system.l2.ReadExReq_miss_latency::total      14792000                       # number of ReadExReq miss cycles
system.l2.ReadExReq_accesses::.cpu.data           180                       # number of ReadExReq accesses(hits+misses)
system.l2.ReadExReq_accesses::total               180                       # number of ReadExReq accesses(hits+misses)
system.l2.ReadExReq_miss_rate::.cpu.data     0.988889                       # miss rate for ReadExReq accesses
system.l2.ReadExReq_miss_rate::total         0.988889                       # miss rate for ReadExReq accesses
system.l2.ReadExReq_avg_miss_latency::.cpu.data 83101.123596                       # average ReadExReq miss latency
system.l2.ReadExReq_avg_miss_latency::total 83101.123596                       # average ReadExReq miss latency
system.l2.ReadExReq_mshr_misses::.cpu.data          178                       # number of ReadExReq MSHR misses
system.l2.ReadExReq_mshr_misses::total            178                       # number of ReadExReq MSHR misses
system.l2.ReadExReq_mshr_miss_latency::.cpu.data     13011501                       # number of ReadExReq MSHR miss cycles
system.l2.ReadExReq_mshr_miss_latency::total     13011501                       # number of ReadExReq MSHR miss cycles
system.l2.ReadExReq_mshr_miss_rate::.cpu.data     0.988889                       # mshr miss rate for ReadExReq accesses
system.l2.ReadExReq_mshr_miss_rate::total     0.988889                       # mshr miss rate for ReadExReq accesses
system.l2.ReadExReq_avg_mshr_miss_latency::.cpu.data 73098.320225                       # average ReadExReq mshr miss latency
system.l2.ReadExReq_avg_mshr_miss_latency::total 73098.320225                       # average ReadExReq mshr miss latency
system.l2.ReadCleanReq_hits::.cpu.inst            739                       # number of ReadCleanReq hits
system.l2.ReadCleanReq_hits::.cpu.icache.prefetcher          697                       # number of ReadCleanReq hits
system.l2.ReadCleanReq_hits::total               1436                       # number of ReadCleanReq hits
system.l2.ReadCleanReq_misses::.cpu.inst          884                       # number of ReadCleanReq misses
system.l2.ReadCleanReq_misses::total              884                       # number of ReadCleanReq misses
system.l2.ReadCleanReq_miss_latency::.cpu.inst     68636000                       # number of ReadCleanReq miss cycles
system.l2.ReadCleanReq_miss_latency::total     68636000                       # number of ReadCleanReq miss cycles
system.l2.ReadCleanReq_accesses::.cpu.inst         1623                       # number of ReadCleanReq accesses(hits+misses)
system.l2.ReadCleanReq_accesses::.cpu.icache.prefetcher          697                       # number of ReadCleanReq accesses(hits+misses)
system.l2.ReadCleanReq_accesses::total           2320                       # number of ReadCleanReq accesses(hits+misses)
[...]
system.cpu.dcache.overall_misses::total          1427                       # number of overall misses
system.cpu.dcache.demand_miss_latency::.cpu.data     95238423                       # number of demand (read+write) miss cycles
system.cpu.dcache.demand_miss_latency::total     95238423                       # number of demand (read+write) miss cycles
system.cpu.dcache.overall_miss_latency::.cpu.data     95238423                       # number of overall miss cycles
system.cpu.dcache.overall_miss_latency::total     95238423                       # number of overall miss cycles
system.cpu.dcache.demand_accesses::.cpu.data        13207                       # number of demand (read+write) accesses
system.cpu.dcache.demand_accesses::total        13207                       # number of demand (read+write) accesses
system.cpu.dcache.overall_accesses::.cpu.data        13235                       # number of overall (read+write) accesses
system.cpu.dcache.overall_accesses::total        13235                       # number of overall (read+write) accesses
system.cpu.dcache.demand_miss_rate::.cpu.data     0.107670                       # miss rate for demand accesses
system.cpu.dcache.demand_miss_rate::total     0.107670                       # miss rate for demand accesses
system.cpu.dcache.overall_miss_rate::.cpu.data     0.107820                       # miss rate for overall accesses
system.cpu.dcache.overall_miss_rate::total     0.107820                       # miss rate for overall accesses
system.cpu.dcache.demand_avg_miss_latency::.cpu.data 66974.981013                       # average overall miss latency
system.cpu.dcache.demand_avg_miss_latency::total 66974.981013                       # average overall miss latency
system.cpu.dcache.overall_avg_miss_latency::.cpu.data 66740.310441                       # average overall miss latency
system.cpu.dcache.overall_avg_miss_latency::total 66740.310441                       # average overall miss latency
system.cpu.dcache.blocked_cycles::no_mshrs         3804                       # number of cycles access was blocked
system.cpu.dcache.blocked_cycles::no_targets            0                       # number of cycles access was blocked
system.cpu.dcache.blocked::no_mshrs               107                       # number of cycles access was blocked
system.cpu.dcache.blocked::no_targets               0                       # number of cycles access was blocked
system.cpu.dcache.avg_blocked_cycles::no_mshrs    35.551402                       # average number of cycles each access was blocked
system.cpu.dcache.avg_blocked_cycles::no_targets          nan                       # average number of cycles each access was blocked
system.cpu.dcache.writebacks::.writebacks            5                       # number of writebacks
system.cpu.dcache.writebacks::total                 5                       # number of writebacks
system.cpu.dcache.demand_mshr_hits::.cpu.data         1002                       # number of demand (read+write) MSHR hits
system.cpu.dcache.demand_mshr_hits::total         1002                       # number of demand (read+write) MSHR hits
system.cpu.dcache.overall_mshr_hits::.cpu.data         1002                       # number of overall MSHR hits
system.cpu.dcache.overall_mshr_hits::total         1002                       # number of overall MSHR hits
system.cpu.dcache.demand_mshr_misses::.cpu.data          420                       # number of demand (read+write) MSHR misses
system.cpu.dcache.demand_mshr_misses::total          420                       # number of demand (read+write) MSHR misses
system.cpu.dcache.overall_mshr_misses::.cpu.data          425                       # number of overall MSHR misses
system.cpu.dcache.overall_mshr_misses::total          425                       # number of overall MSHR misses
system.cpu.dcache.demand_mshr_miss_latency::.cpu.data     32107958                       # number of demand (read+write) MSHR miss cycles
system.cpu.dcache.demand_mshr_miss_latency::total     32107958                       # number of demand (read+write) MSHR miss cycles
system.cpu.dcache.overall_mshr_miss_latency::.cpu.data     32554958                       # number of overall MSHR miss cycles
system.cpu.dcache.overall_mshr_miss_latency::total     32554958                       # number of overall MSHR miss cycles
system.cpu.dcache.demand_mshr_miss_rate::.cpu.data     0.031801                       # mshr miss rate for demand accesses
system.cpu.dcache.demand_mshr_miss_rate::total     0.031801                       # mshr miss rate for demand accesses
system.cpu.dcache.overall_mshr_miss_rate::.cpu.data     0.032112                       # mshr miss rate for overall accesses
system.cpu.dcache.overall_mshr_miss_rate::total     0.032112                       # mshr miss rate for overall accesses
system.cpu.dcache.demand_avg_mshr_miss_latency::.cpu.data 76447.519048                       # average overall mshr miss latency
system.cpu.dcache.demand_avg_mshr_miss_latency::total 76447.519048                       # average overall mshr miss latency
system.cpu.dcache.overall_avg_mshr_miss_latency::.cpu.data 76599.901176                       # average overall mshr miss latency
system.cpu.dcache.overall_avg_mshr_miss_latency::total 76599.901176                       # average overall mshr miss latency
system.cpu.dcache.replacements                     14                       # number of replacements
system.cpu.dcache.ReadReq_hits::.cpu.data         6682                       # number of ReadReq hits
system.cpu.dcache.ReadReq_hits::total            6682                       # number of ReadReq hits
system.cpu.dcache.ReadReq_misses::.cpu.data          442                       # number of ReadReq misses
system.cpu.dcache.ReadReq_misses::total           442                       # number of ReadReq misses
system.cpu.dcache.ReadReq_miss_latency::.cpu.data     31032500                       # number of ReadReq miss cycles
system.cpu.dcache.ReadReq_miss_latency::total     31032500                       # number of ReadReq miss cycles
system.cpu.dcache.ReadReq_accesses::.cpu.data         7124                       # number of ReadReq accesses(hits+misses)
system.cpu.dcache.ReadReq_accesses::total         7124                       # number of ReadReq accesses(hits+misses)
system.cpu.dcache.ReadReq_miss_rate::.cpu.data     0.062044                       # miss rate for ReadReq accesses
system.cpu.dcache.ReadReq_miss_rate::total     0.062044                       # miss rate for ReadReq accesses
system.cpu.dcache.ReadReq_avg_miss_latency::.cpu.data 70209.276018                       # average ReadReq miss latency
system.cpu.dcache.ReadReq_avg_miss_latency::total 70209.276018                       # average ReadReq miss latency
system.cpu.dcache.ReadReq_mshr_hits::.cpu.data          265                       # number of ReadReq MSHR hits
system.cpu.dcache.ReadReq_mshr_hits::total          265                       # number of ReadReq MSHR hits
system.cpu.dcache.ReadReq_mshr_misses::.cpu.data          177                       # number of ReadReq MSHR misses
system.cpu.dcache.ReadReq_mshr_misses::total          177                       # number of ReadReq MSHR misses
system.cpu.dcache.ReadReq_mshr_miss_latency::.cpu.data     15065000                       # number of ReadReq MSHR miss cycles
system.cpu.dcache.ReadReq_mshr_miss_latency::total     15065000                       # number of ReadReq MSHR miss cycles
system.cpu.dcache.ReadReq_mshr_miss_rate::.cpu.data     0.024846                       # mshr miss rate for ReadReq accesses
system.cpu.dcache.ReadReq_mshr_miss_rate::total     0.024846                       # mshr miss rate for ReadReq accesses
system.cpu.dcache.ReadReq_avg_mshr_miss_latency::.cpu.data 85112.994350                       # average ReadReq mshr miss latency
system.cpu.dcache.ReadReq_avg_mshr_miss_latency::total 85112.994350                       # average ReadReq mshr miss latency
system.cpu.dcache.WriteReq_hits::.cpu.data         5103                       # number of WriteReq hits
system.cpu.dcache.WriteReq_hits::total           5103                       # number of WriteReq hits
system.cpu.dcache.WriteReq_misses::.cpu.data          920                       # number of WriteReq misses
system.cpu.dcache.WriteReq_misses::total          920                       # number of WriteReq misses
system.cpu.dcache.WriteReq_miss_latency::.cpu.data     62295457                       # number of WriteReq miss cycles
system.cpu.dcache.WriteReq_miss_latency::total     62295457                       # number of WriteReq miss cycles
system.cpu.dcache.WriteReq_accesses::.cpu.data         6023                       # number of WriteReq accesses(hits+misses)
system.cpu.dcache.WriteReq_accesses::total         6023                       # number of WriteReq accesses(hits+misses)
system.cpu.dcache.WriteReq_miss_rate::.cpu.data     0.152748                       # miss rate for WriteReq accesses
system.cpu.dcache.WriteReq_miss_rate::total     0.152748                       # miss rate for WriteReq accesses
system.cpu.dcache.WriteReq_avg_miss_latency::.cpu.data 67712.453261                       # average WriteReq miss latency
system.cpu.dcache.WriteReq_avg_miss_latency::total 67712.453261                       # average WriteReq miss latency
system.cpu.dcache.WriteReq_mshr_hits::.cpu.data          737                       # number of WriteReq MSHR hits
system.cpu.dcache.WriteReq_mshr_hits::total          737                       # number of WriteReq MSHR hits
system.cpu.dcache.WriteReq_mshr_misses::.cpu.data          183                       # number of WriteReq MSHR misses
system.cpu.dcache.WriteReq_mshr_misses::total          183                       # number of WriteReq MSHR misses
system.cpu.dcache.WriteReq_mshr_miss_latency::.cpu.data     15192492                       # number of WriteReq MSHR miss cycles
system.cpu.dcache.WriteReq_mshr_miss_latency::total     15192492                       # number of WriteReq MSHR miss cycles
system.cpu.dcache.WriteReq_mshr_miss_rate::.cpu.data     0.030384                       # mshr miss rate for WriteReq accesses
system.cpu.dcache.WriteReq_mshr_miss_rate::total     0.030384                       # mshr miss rate for WriteReq accesses
system.cpu.dcache.WriteReq_avg_mshr_miss_latency::.cpu.data 83019.081967                       # average WriteReq mshr miss latency
system.cpu.dcache.WriteReq_avg_mshr_miss_latency::total 83019.081967                       # average WriteReq mshr miss latency
system.cpu.dcache.SoftPFReq_hits::.cpu.data           23                       # number of SoftPFReq hits
system.cpu.dcache.SoftPFReq_hits::total            23                       # number of SoftPFReq hits
system.cpu.dcache.SoftPFReq_misses::.cpu.data            5                       # number of SoftPFReq misses
system.cpu.dcache.SoftPFReq_misses::total            5                       # number of SoftPFReq misses
system.cpu.dcache.SoftPFReq_accesses::.cpu.data           28                       # number of SoftPFReq accesses(hits+misses)
system.cpu.dcache.SoftPFReq_accesses::total           28                       # number of SoftPFReq accesses(hits+misses)
system.cpu.dcache.SoftPFReq_miss_rate::.cpu.data     0.178571                       # miss rate for SoftPFReq accesses
system.cpu.dcache.SoftPFReq_miss_rate::total     0.178571                       # miss rate for SoftPFReq accesses
system.cpu.dcache.SoftPFReq_mshr_misses::.cpu.data            5                       # number of SoftPFReq MSHR misses
system.cpu.dcache.SoftPFReq_mshr_misses::total            5                       # number of SoftPFReq MSHR misses
system.cpu.dcache.SoftPFReq_mshr_miss_latency::.cpu.data       447000                       # number of SoftPFReq MSHR miss cycles
system.cpu.dcache.SoftPFReq_mshr_miss_latency::total       447000                       # number of SoftPFReq MSHR miss cycles
system.cpu.dcache.SoftPFReq_mshr_miss_rate::.cpu.data     0.178571                       # mshr miss rate for SoftPFReq accesses
system.cpu.dcache.SoftPFReq_mshr_miss_rate::total     0.178571                       # mshr miss rate for SoftPFReq accesses
system.cpu.dcache.SoftPFReq_avg_mshr_miss_latency::.cpu.data        89400                       # average SoftPFReq mshr miss latency
system.cpu.dcache.SoftPFReq_avg_mshr_miss_latency::total        89400                       # average SoftPFReq mshr miss latency
system.cpu.dcache.WriteLineReq_misses::.cpu.data           60                       # number of WriteLineReq misses
system.cpu.dcache.WriteLineReq_misses::total           60                       # number of WriteLineReq misses
system.cpu.dcache.WriteLineReq_miss_latency::.cpu.data      1910466                       # number of WriteLineReq miss cycles
system.cpu.dcache.WriteLineReq_miss_latency::total      1910466                       # number of WriteLineReq miss cycles
system.cpu.dcache.WriteLineReq_accesses::.cpu.data           60                       # number of WriteLineReq accesses(hits+misses)
system.cpu.dcache.WriteLineReq_accesses::total           60                       # number of WriteLineReq accesses(hits+misses)
system.cpu.dcache.WriteLineReq_miss_rate::.cpu.data            1                       # miss rate for WriteLineReq accesses
system.cpu.dcache.WriteLineReq_miss_rate::total            1                       # miss rate for WriteLineReq accesses
system.cpu.dcache.WriteLineReq_avg_miss_latency::.cpu.data 31841.100000                       # average WriteLineReq miss latency
system.cpu.dcache.WriteLineReq_avg_miss_latency::total 31841.100000                       # average WriteLineReq miss latency
system.cpu.dcache.WriteLineReq_mshr_misses::.cpu.data           60                       # number of WriteLineReq MSHR misses
system.cpu.dcache.WriteLineReq_mshr_misses::total           60                       # number of WriteLineReq MSHR misses
system.cpu.dcache.WriteLineReq_mshr_miss_latency::.cpu.data      1850466                       # number of WriteLineReq MSHR miss cycles
system.cpu.dcache.WriteLineReq_mshr_miss_latency::total      1850466                       # number of WriteLineReq MSHR miss cycles
system.cpu.dcache.WriteLineReq_mshr_miss_rate::.cpu.data            1                       # mshr miss rate for WriteLineReq accesses
system.cpu.dcache.WriteLineReq_mshr_miss_rate::total            1                       # mshr miss rate for WriteLineReq accesses
system.cpu.dcache.WriteLineReq_avg_mshr_miss_latency::.cpu.data 30841.100000                       # average WriteLineReq mshr miss latency
system.cpu.dcache.WriteLineReq_avg_mshr_miss_latency::total 30841.100000                       # average WriteLineReq mshr miss latency
system.cpu.dcache.LoadLockedReq_hits::.cpu.data           35                       # number of LoadLockedReq hits
system.cpu.dcache.LoadLockedReq_hits::total           35                       # number of LoadLockedReq hits
system.cpu.dcache.LoadLockedReq_misses::.cpu.data            1                       # number of LoadLockedReq misses
system.cpu.dcache.LoadLockedReq_misses::total            1                       # number of LoadLockedReq misses
system.cpu.dcache.LoadLockedReq_miss_latency::.cpu.data        86500                       # number of LoadLockedReq miss cycles
system.cpu.dcache.LoadLockedReq_miss_latency::total        86500                       # number of LoadLockedReq miss cycles
system.cpu.dcache.LoadLockedReq_accesses::.cpu.data           36                       # number of LoadLockedReq accesses(hits+misses)
system.cpu.dcache.LoadLockedReq_accesses::total           36                       # number of LoadLockedReq accesses(hits+misses)
system.cpu.dcache.LoadLockedReq_miss_rate::.cpu.data     0.027778                       # miss rate for LoadLockedReq accesses
system.cpu.dcache.LoadLockedReq_miss_rate::total     0.027778                       # miss rate for LoadLockedReq accesses
system.cpu.dcache.LoadLockedReq_avg_miss_latency::.cpu.data        86500                       # average LoadLockedReq miss latency
system.cpu.dcache.LoadLockedReq_avg_miss_latency::total        86500                       # average LoadLockedReq miss latency
system.cpu.dcache.LoadLockedReq_mshr_misses::.cpu.data            1                       # number of LoadLockedReq MSHR misses
system.cpu.dcache.LoadLockedReq_mshr_misses::total            1                       # number of LoadLockedReq MSHR misses
system.cpu.dcache.LoadLockedReq_mshr_miss_latency::.cpu.data        85500                       # number of LoadLockedReq MSHR miss cycles
system.cpu.dcache.LoadLockedReq_mshr_miss_latency::total        85500                       # number of LoadLockedReq MSHR miss cycles
system.cpu.dcache.LoadLockedReq_mshr_miss_rate::.cpu.data     0.027778                       # mshr miss rate for LoadLockedReq accesses
system.cpu.dcache.LoadLockedReq_mshr_miss_rate::total     0.027778                       # mshr miss rate for LoadLockedReq accesses
system.cpu.dcache.LoadLockedReq_avg_mshr_miss_latency::.cpu.data        85500                       # average LoadLockedReq mshr miss latency
system.cpu.dcache.LoadLockedReq_avg_mshr_miss_latency::total        85500                       # average LoadLockedReq mshr miss latency
system.cpu.dcache.StoreCondReq_hits::.cpu.data           24                       # number of StoreCondReq hits
system.cpu.dcache.StoreCondReq_hits::total           24                       # number of StoreCondReq hits
system.cpu.dcache.StoreCondReq_accesses::.cpu.data           24                       # number of StoreCondReq accesses(hits+misses)
system.cpu.dcache.StoreCondReq_accesses::total           24                       # number of StoreCondReq accesses(hits+misses)
system.cpu.dcache.power_state.pwrStateResidencyTicks::UNDEFINED     68272500                       # Cumulative time (in ticks) in various power states
system.cpu.dcache.tags.tagsinuse           259.647701                       # Cycle average of tags in use
system.cpu.dcache.tags.total_refs               12293                       # Total number of references to valid blocks.
system.cpu.dcache.tags.sampled_refs               426                       # Sample count of references to valid blocks.
system.cpu.dcache.tags.avg_refs             28.856808                       # Average number of references to valid blocks.
system.cpu.dcache.tags.warmup_cycle            176500                       # Cycle when the warmup percentage was hit.
system.cpu.dcache.tags.occ_blocks::.cpu.data   259.647701                       # Average occupied blocks per requestor
system.cpu.dcache.tags.occ_percent::.cpu.data     0.253562                       # Average percentage of cache occupancy
system.cpu.dcache.tags.occ_percent::total     0.253562                       # Average percentage of cache occupancy
system.cpu.dcache.tags.occ_task_id_blocks::1024          412                       # Occupied blocks per task id
system.cpu.dcache.tags.age_task_id_blocks_1024::0           24                       # Occupied blocks per task id
system.cpu.dcache.tags.age_task_id_blocks_1024::1          388                       # Occupied blocks per task id
system.cpu.dcache.tags.occ_task_id_percent::1024     0.402344                       # Percentage of cache occupancy per task id
system.cpu.dcache.tags.tag_accesses             27016                       # Number of tag accesses
system.cpu.dcache.tags.data_accesses            27016                       # Number of data accesses
system.cpu.dcache.tags.power_state.pwrStateResidencyTicks::UNDEFINED     68272500                       # Cumulative time (in ticks) in various power states
system.cpu.power_state.pwrStateResidencyTicks::ON     68272500                       # Cumulative time (in ticks) in various power states

---------- End Simulation Statistics   ----------
