
---------- Begin Simulation Statistics ----------
final_tick                                   59415500                       # Number of ticks from beginning of simulation (restored from checkpoints and never reset)
host_inst_rate                                  29969                       # Simulator instruction rate (inst/s)
host_mem_usage                                 867996                       # Number of bytes of host memory used
host_op_rate                                    36225                       # Simulator op (including micro ops) rate (op/s)
host_seconds                                     0.79                       # Real time elapsed on the host
host_tick_rate                               75650223                       # Simulator tick rate (ticks/s)
sim_freq                                 1000000000000                       # Frequency of simulated ticks
sim_insts                                       23532                       # Number of instructions simulated
sim_ops                                         28450                       # Number of ops (including micro ops) simulated
sim_seconds                                  0.000059                       # Number of seconds simulated
sim_ticks                                    59415500                       # Number of ticks simulated
system.cpu.branchPred.BTBCorrect                    0                       # Number of correct BTB predictions (this stat may not work properly.
system.cpu.branchPred.BTBHitPct             64.847716                       # BTB Hit Percentage
system.cpu.branchPred.BTBHits                    3066                       # Number of BTB hits
system.cpu.branchPred.BTBLookups                 4728                       # Number of BTB lookups
system.cpu.branchPred.RASInCorrect                  5                       # Number of incorrect RAS predictions.
system.cpu.branchPred.condIncorrect              1356                       # Number of conditional branches incorrect
system.cpu.branchPred.condPredicted              7807                       # Number of conditional branches predicted
system.cpu.branchPred.indirectHits                 38                       # Number of indirect target hits.
system.cpu.branchPred.indirectLookups             414                       # Number of indirect predictor lookups.
system.cpu.branchPred.indirectMisses              376                       # Number of indirect misses.
system.cpu.branchPred.lookups                   10999                       # Number of BP lookups
system.cpu.branchPred.usedRAS                     938                       # Number of times the RAS was used to get a target.
system.cpu.branchPredindirectMispredicted          107                       # Number of mispredicted indirect branches.
system.cpu.cc_regfile_reads                      8697                       # number of cc regfile reads
system.cpu.cc_regfile_writes                     8541                       # number of cc regfile writes
system.cpu.commit.amos                              0                       # Number of atomic instructions committed
system.cpu.commit.branchMispredicts               908                       # The number of times a branch was mispredicted
system.cpu.commit.branches                       5605                       # Number of branches committed
system.cpu.commit.bw_lim_events                  1084                       # number cycles where commit BW limit reached
system.cpu.commit.commitNonSpecStalls              54                       # The number of times commit has been forced to stall to communicate backwards
system.cpu.commit.commitSquashedInsts           13978                       # The number of squashed insts skipped by commit
system.cpu.commit.committedInsts                23588                       # Number of instructions committed
system.cpu.commit.committedOps                  28506                       # Number of ops (including micro ops) committed
system.cpu.commit.committed_per_cycle::samples        43310                       # Number of insts commited each cycle
system.cpu.commit.committed_per_cycle::mean     0.658185                       # Number of insts commited each cycle
system.cpu.commit.committed_per_cycle::stdev     1.678312                       # Number of insts commited each cycle
system.cpu.commit.committed_per_cycle::underflows            0      0.00%      0.00% # Number of insts commited each cycle
system.cpu.commit.committed_per_cycle::0        33990     78.48%     78.48% # Number of insts commited each cycle
system.cpu.commit.committed_per_cycle::1         3514      8.11%     86.59% # Number of insts commited each cycle
system.cpu.commit.committed_per_cycle::2         1896      4.38%     90.97% # Number of insts commited each cycle
system.cpu.commit.committed_per_cycle::3          913      2.11%     93.08% # Number of insts commited each cycle
system.cpu.commit.committed_per_cycle::4          668      1.54%     94.62% # Number of insts commited each cycle
system.cpu.commit.committed_per_cycle::5          571      1.32%     95.94% # Number of insts commited each cycle
system.cpu.commit.committed_per_cycle::6          456      1.05%     96.99% # Number of insts commited each cycle
system.cpu.commit.committed_per_cycle::7          218      0.50%     97.50% # Number of insts commited each cycle
system.cpu.commit.committed_per_cycle::8         1084      2.50%    100.00% # Number of insts commited each cycle
system.cpu.commit.committed_per_cycle::overflows            0      0.00%    100.00% # Number of insts commited each cycle
system.cpu.commit.committed_per_cycle::min_value            0                       # Number of insts commited each cycle
system.cpu.commit.committed_per_cycle::max_value            8                       # Number of insts commited each cycle
system.cpu.commit.committed_per_cycle::total        43310                       # Number of insts commited each cycle
system.cpu.commit.fp_insts                          0                       # Number of committed floating point instructions.
system.cpu.commit.function_calls                  490                       # Number of function calls committed.
system.cpu.commit.int_insts                     25886                       # Number of committed integer instructions.
system.cpu.commit.loads                          4020                       # Number of loads committed
system.cpu.commit.membars                          36                       # Number of memory barriers committed
system.cpu.commit.op_class_0::No_OpClass            7      0.02%      0.02% # Class of committed instruction
system.cpu.commit.op_class_0::IntAlu            19666     68.99%     69.01% # Class of committed instruction
system.cpu.commit.op_class_0::IntMult              42      0.15%     69.16% # Class of committed instruction
system.cpu.commit.op_class_0::IntDiv                3      0.01%     69.17% # Class of committed instruction
system.cpu.commit.op_class_0::FloatAdd              0      0.00%     69.17% # Class of committed instruction
system.cpu.commit.op_class_0::FloatCmp              0      0.00%     69.17% # Class of committed instruction
system.cpu.commit.op_class_0::FloatCvt              0      0.00%     69.17% # Class of committed instruction
system.cpu.commit.op_class_0::FloatMult             0      0.00%     69.17% # Class of committed instruction
system.cpu.commit.op_class_0::FloatMultAcc            0      0.00%     69.17% # Class of committed instruction
system.cpu.commit.op_class_0::FloatDiv              0      0.00%     69.17% # Class of committed instruction
system.cpu.commit.op_class_0::FloatMisc             0      0.00%     69.17% # Class of committed instruction
system.cpu.commit.op_class_0::FloatSqrt             0      0.00%     69.17% # Class of committed instruction
system.cpu.commit.op_class_0::SimdAdd              26      0.09%     69.26% # Class of committed instruction
system.cpu.commit.op_class_0::SimdAddAcc            0      0.00%     69.26% # Class of committed instruction
system.cpu.commit.op_class_0::SimdAlu              26      0.09%     69.35% # Class of committed instruction
system.cpu.commit.op_class_0::SimdCmp              28      0.10%     69.45% # Class of committed instruction
system.cpu.commit.op_class_0::SimdCvt               0      0.00%     69.45% # Class of committed instruction
system.cpu.commit.op_class_0::SimdMisc             30      0.11%     69.56% # Class of committed instruction
system.cpu.commit.op_class_0::SimdMult              0      0.00%     69.56% # Class of committed instruction
system.cpu.commit.op_class_0::SimdMultAcc            0      0.00%     69.56% # Class of committed instruction
system.cpu.commit.op_class_0::SimdShift             0      0.00%     69.56% # Class of committed instruction
system.cpu.commit.op_class_0::SimdShiftAcc            0      0.00%     69.56% # Class of committed instruction
system.cpu.commit.op_class_0::SimdDiv               0      0.00%     69.56% # Class of committed instruction
system.cpu.commit.op_class_0::SimdSqrt              0      0.00%     69.56% # Class of committed instruction
system.cpu.commit.op_class_0::SimdFloatAdd            0      0.00%     69.56% # Class of committed instruction
system.cpu.commit.op_class_0::SimdFloatAlu            0      0.00%     69.56% # Class of committed instruction
system.cpu.commit.op_class_0::SimdFloatCmp            0      0.00%     69.56% # Class of committed instruction
system.cpu.commit.op_class_0::SimdFloatCvt            0      0.00%     69.56% # Class of committed instruction
system.cpu.commit.op_class_0::SimdFloatDiv            0      0.00%     69.56% # Class of committed instruction
system.cpu.commit.op_class_0::SimdFloatMisc            0      0.00%     69.56% # Class of committed instruction
system.cpu.commit.op_class_0::SimdFloatMult            0      0.00%     69.56% # Class of committed instruction
system.cpu.commit.op_class_0::SimdFloatMultAcc            0      0.00%     69.56% # Class of committed instruction
system.cpu.commit.op_class_0::SimdFloatSqrt            0      0.00%     69.56% # Class of committed instruction
system.cpu.commit.op_class_0::SimdReduceAdd            0      0.00%     69.56% # Class of committed instruction
system.cpu.commit.op_class_0::SimdReduceAlu            0      0.00%     69.56% # Class of committed instruction
system.cpu.commit.op_class_0::SimdReduceCmp            0      0.00%     69.56% # Class of committed instruction
system.cpu.commit.op_class_0::SimdFloatReduceAdd            0      0.00%     69.56% # Class of committed instruction
system.cpu.commit.op_class_0::SimdFloatReduceCmp            0      0.00%     69.56% # Class of committed instruction
system.cpu.commit.op_class_0::SimdAes               0      0.00%     69.56% # Class of committed instruction
system.cpu.commit.op_class_0::SimdAesMix            0      0.00%     69.56% # Class of committed instruction
system.cpu.commit.op_class_0::SimdSha1Hash            0      0.00%     69.56% # Class of committed instruction
system.cpu.commit.op_class_0::SimdSha1Hash2            0      0.00%     69.56% # Class of committed instruction
system.cpu.commit.op_class_0::SimdSha256Hash            0      0.00%     69.56% # Class of committed instruction
system.cpu.commit.op_class_0::SimdSha256Hash2            0      0.00%     69.56% # Class of committed instruction
system.cpu.commit.op_class_0::SimdShaSigma2            0      0.00%     69.56% # Class of committed instruction
system.cpu.commit.op_class_0::SimdShaSigma3            0      0.00%     69.56% # Class of committed instruction
system.cpu.commit.op_class_0::SimdPredAlu            0      0.00%     69.56% # Class of committed instruction
system.cpu.commit.op_class_0::MemRead            4020     14.10%     83.66% # Class of committed instruction
system.cpu.commit.op_class_0::MemWrite           4658     16.34%    100.00% # Class of committed instruction
system.cpu.commit.op_class_0::FloatMemRead            0      0.00%    100.00% # Class of committed instruction
system.cpu.commit.op_class_0::FloatMemWrite            0      0.00%    100.00% # Class of committed instruction
system.cpu.commit.op_class_0::IprAccess             0      0.00%    100.00% # Class of committed instruction
system.cpu.commit.op_class_0::InstPrefetch            0      0.00%    100.00% # Class of committed instruction
system.cpu.commit.op_class_0::total             28506                       # Class of committed instruction
system.cpu.commit.refs                           8678                       # Number of memory references committed
system.cpu.commit.swp_count                         0                       # Number of s/w prefetches committed
system.cpu.commit.vec_insts                       413                       # Number of committed Vector instructions.
system.cpu.committedInsts                       23532                       # Number of Instructions Simulated
system.cpu.committedOps                         28450                       # Number of Ops (including micro ops) Simulated
system.cpu.cpi                               5.049805                       # CPI: Cycles Per Instruction
system.cpu.cpi_total                         5.049805                       # CPI: Total CPI of All Threads
system.cpu.decode.BlockedCycles                 12315                       # Number of cycles decode is blocked
system.cpu.decode.BranchMispred                   453                       # Number of times decode detected a branch misprediction
system.cpu.decode.BranchResolved                 3308                       # Number of times decode resolved a branch
system.cpu.decode.DecodedInsts                  48028                       # Number of instructions handled by decode
system.cpu.decode.IdleCycles                    23748                       # Number of cycles decode is idle
system.cpu.decode.RunCycles                      7933                       # Number of cycles decode is running
system.cpu.decode.SquashCycles                    942                       # Number of cycles decode is squashing
system.cpu.decode.SquashedInsts                  1528                       # Number of squashed instructions handled by decode
system.cpu.decode.UnblockCycles                   708                       # Number of cycles decode is unblocking
system.cpu.dtb.accesses                             0                       # DTB accesses
system.cpu.dtb.align_faults                         0                       # Number of TLB faults due to alignment restrictions
system.cpu.dtb.domain_faults                        0                       # Number of TLB faults due to domain restrictions
system.cpu.dtb.flush_entries                        0                       # Number of entries that have been flushed from TLB
system.cpu.dtb.flush_tlb                            0                       # Number of times complete TLB was flushed
system.cpu.dtb.flush_tlb_asid                       0                       # Number of times TLB was flushed by ASID
system.cpu.dtb.flush_tlb_mva                        0                       # Number of times TLB was flushed by MVA
system.cpu.dtb.flush_tlb_mva_asid                   0                       # Number of times TLB was flushed by MVA & ASID
system.cpu.dtb.hits                                 0                       # DTB hits
system.cpu.dtb.inst_accesses                        0                       # ITB inst accesses
system.cpu.dtb.inst_hits                            0                       # ITB inst hits
system.cpu.dtb.inst_misses                          0                       # ITB inst misses
system.cpu.dtb.misses                               0                       # DTB misses
system.cpu.dtb.perms_faults                         0                       # Number of TLB faults due to permissions restrictions
system.cpu.dtb.prefetch_faults                      0                       # Number of TLB faults due to prefetch
system.cpu.dtb.read_accesses                        0                       # DTB read accesses
system.cpu.dtb.read_hits                            0                       # DTB read hits
system.cpu.dtb.read_misses                          0                       # DTB read misses
system.cpu.dtb.stage2_mmu.stage2_tlb.accesses            0                       # DTB accesses
system.cpu.dtb.stage2_mmu.stage2_tlb.align_faults            0                       # Number of TLB faults due to alignment restrictions
system.cpu.dtb.stage2_mmu.stage2_tlb.domain_faults            0                       # Number of TLB faults due to domain restrictions
system.cpu.dtb.stage2_mmu.stage2_tlb.flush_entries            0                       # Number of entries that have been flushed from TLB
system.cpu.dtb.stage2_mmu.stage2_tlb.flush_tlb            0                       # Number of times complete TLB was flushed
system.cpu.dtb.stage2_mmu.stage2_tlb.flush_tlb_asid            0                       # Number of times TLB was flushed by ASID
system.cpu.dtb.stage2_mmu.stage2_tlb.flush_tlb_mva            0                       # Number of times TLB was flushed by MVA
system.cpu.dtb.stage2_mmu.stage2_tlb.flush_tlb_mva_asid            0                       # Number of times TLB was flushed by MVA & ASID
system.cpu.dtb.stage2_mmu.stage2_tlb.hits            0                       # DTB hits
system.cpu.dtb.stage2_mmu.stage2_tlb.inst_accesses            0                       # ITB inst accesses
system.cpu.dtb.stage2_mmu.stage2_tlb.inst_hits            0                       # ITB inst hits
system.cpu.dtb.stage2_mmu.stage2_tlb.inst_misses            0                       # ITB inst misses
system.cpu.dtb.stage2_mmu.stage2_tlb.misses            0                       # DTB misses
system.cpu.dtb.stage2_mmu.stage2_tlb.perms_faults            0                       # Number of TLB faults due to permissions restrictions
system.cpu.dtb.stage2_mmu.stage2_tlb.prefetch_faults            0                       # Number of TLB faults due to prefetch
system.cpu.dtb.stage2_mmu.stage2_tlb.read_accesses            0                       # DTB read accesses
system.cpu.dtb.stage2_mmu.stage2_tlb.read_hits            0                       # DTB read hits
system.cpu.dtb.stage2_mmu.stage2_tlb.read_misses            0                       # DTB read misses
system.cpu.dtb.stage2_mmu.stage2_tlb.walker.walkRequestOrigin_Requested::Data            0                       # Table walker requests started/completed, data/inst
system.cpu.dtb.stage2_mmu.stage2_tlb.walker.walkRequestOrigin_Requested::Inst            0                       # Table walker requests started/completed, data/inst
system.cpu.dtb.stage2_mmu.stage2_tlb.walker.walkRequestOrigin_Requested::total            0                       # Table walker requests started/completed, data/inst
system.cpu.dtb.stage2_mmu.stage2_tlb.walker.walkRequestOrigin_Completed::Data            0                       # Table walker requests started/completed, data/inst
system.cpu.dtb.stage2_mmu.stage2_tlb.walker.walkRequestOrigin_Completed::Inst            0                       # Table walker requests started/completed, data/inst
system.cpu.dtb.stage2_mmu.stage2_tlb.walker.walkRequestOrigin_Completed::total            0                       # Table walker requests started/completed, data/inst
system.cpu.dtb.stage2_mmu.stage2_tlb.walker.walkRequestOrigin::total            0                       # Table walker requests started/completed, data/inst
system.cpu.dtb.stage2_mmu.stage2_tlb.walker.walks            0                       # Table walker walks requested
system.cpu.dtb.stage2_mmu.stage2_tlb.write_accesses            0                       # DTB write accesses
system.cpu.dtb.stage2_mmu.stage2_tlb.write_hits            0                       # DTB write hits
system.cpu.dtb.stage2_mmu.stage2_tlb.write_misses            0                       # DTB write misses
system.cpu.dtb.walker.walkRequestOrigin_Requested::Data            0                       # Table walker requests started/completed, data/inst
system.cpu.dtb.walker.walkRequestOrigin_Requested::Inst            0                       # Table walker requests started/completed, data/inst
system.cpu.dtb.walker.walkRequestOrigin_Requested::total            0                       # Table walker requests started/completed, data/inst
system.cpu.dtb.walker.walkRequestOrigin_Completed::Data            0                       # Table walker requests started/completed, data/inst
system.cpu.dtb.walker.walkRequestOrigin_Completed::Inst            0                       # Table walker requests started/completed, data/inst
system.cpu.dtb.walker.walkRequestOrigin_Completed::total            0                       # Table walker requests started/completed, data/inst
system.cpu.dtb.walker.walkRequestOrigin::total            0                       # Table walker requests started/completed, data/inst
system.cpu.dtb.walker.walks                         0                       # Table walker walks requested
system.cpu.dtb.write_accesses                       0                       # DTB write accesses
system.cpu.dtb.write_hits                           0                       # DTB write hits
system.cpu.dtb.write_misses                         0                       # DTB write misses
system.cpu.fetch.Branches                       10999                       # Number of branches that fetch encountered
system.cpu.fetch.CacheLines                      6652                       # Number of cache lines fetched
system.cpu.fetch.Cycles                         16569                       # Number of cycles fetch has run and was not squashing or blocked
system.cpu.fetch.IcacheSquashes                   890                       # Number of outstanding Icache misses that were squashed
system.cpu.fetch.IcacheWaitRetryStallCycles           90                       # Number of stall cycles due to full MSHR
system.cpu.fetch.Insts                          46838                       # Number of instructions fetch has processed
system.cpu.fetch.MiscStallCycles                    9                       # Number of cycles fetch has spent waiting on interrupts, or bad addresses, or out of MSHRs
system.cpu.fetch.SquashCycles                    2780                       # Number of cycles fetch has spent squashing
system.cpu.fetch.branchRate                  0.092559                       # Number of branch fetches per cycle
system.cpu.fetch.icacheStallCycles              27588                       # Number of cycles fetch is stalled on an Icache miss
system.cpu.fetch.predictedBranches               4042                       # Number of branches that fetch has predicted taken
system.cpu.fetch.rate                        0.394153                       # Number of inst fetches per cycle
system.cpu.fetch.rateDist::samples              45646                       # Number of instructions fetched each cycle (Total)
system.cpu.fetch.rateDist::mean              1.219406                       # Number of instructions fetched each cycle (Total)
system.cpu.fetch.rateDist::stdev             2.588606                       # Number of instructions fetched each cycle (Total)
system.cpu.fetch.rateDist::underflows               0      0.00%      0.00% # Number of instructions fetched each cycle (Total)
system.cpu.fetch.rateDist::0                    35490     77.75%     77.75% # Number of instructions fetched each cycle (Total)
system.cpu.fetch.rateDist::1                     1052      2.30%     80.06% # Number of instructions fetched each cycle (Total)
system.cpu.fetch.rateDist::2                     1078      2.36%     82.42% # Number of instructions fetched each cycle (Total)
system.cpu.fetch.rateDist::3                      666      1.46%     83.88% # Number of instructions fetched each cycle (Total)
system.cpu.fetch.rateDist::4                      997      2.18%     86.06% # Number of instructions fetched each cycle (Total)
system.cpu.fetch.rateDist::5                      647      1.42%     87.48% # Number of instructions fetched each cycle (Total)
system.cpu.fetch.rateDist::6                      933      2.04%     89.52% # Number of instructions fetched each cycle (Total)
system.cpu.fetch.rateDist::7                      630      1.38%     90.90% # Number of instructions fetched each cycle (Total)
system.cpu.fetch.rateDist::8                     4153      9.10%    100.00% # Number of instructions fetched each cycle (Total)
system.cpu.fetch.rateDist::overflows                0      0.00%    100.00% # Number of instructions fetched each cycle (Total)
system.cpu.fetch.rateDist::min_value                0                       # Number of instructions fetched each cycle (Total)
system.cpu.fetch.rateDist::max_value                8                       # Number of instructions fetched each cycle (Total)
system.cpu.fetch.rateDist::total                45646                       # Number of instructions fetched each cycle (Total)
system.cpu.icache.prefetcher.num_hwpf_issued         2362                       # number of hwpf issued
system.cpu.icache.prefetcher.pfBufferHit          429                       # number of redundant prefetches already in prefetch queue
system.cpu.icache.prefetcher.pfIdentified         3096                       # number of prefetch candidates identified
system.cpu.icache.prefetcher.pfInCache              0                       # number of redundant prefetches already in cache/mshr dropped
system.cpu.icache.prefetcher.pfRemovedFull          172                       # number of prefetches dropped due to prefetch queue size
system.cpu.icache.prefetcher.pfSpanPage         24292                       # number of prefetches that crossed the page
system.cpu.idleCycles                           73186                       # Total number of cycles that the CPU has spent unscheduled due to idling
system.cpu.iew.branchMispredicts                 1082                       # Number of branch mispredicts detected at execute
system.cpu.iew.exec_branches                     7009                       # Number of branches executed
system.cpu.iew.exec_nop                           114                       # number of nop insts executed
system.cpu.iew.exec_rate                     0.317499                       # Inst execution rate
system.cpu.iew.exec_refs                        11567                       # number of memory reference insts executed
system.cpu.iew.exec_stores                       5658                       # Number of stores executed
system.cpu.iew.exec_swp                             0                       # number of swp insts executed
system.cpu.iew.iewBlockCycles                    2204                       # Number of cycles IEW is blocking
system.cpu.iew.iewDispLoadInsts                  6343                       # Number of dispatched load instructions
system.cpu.iew.iewDispNonSpecInsts                 93                       # Number of dispatched non-speculative instructions
system.cpu.iew.iewDispSquashedInsts               219                       # Number of squashed instructions skipped by dispatch
system.cpu.iew.iewDispStoreInsts                 6727                       # Number of dispatched store instructions
system.cpu.iew.iewDispatchedInsts               42508                       # Number of instructions dispatched to IQ
system.cpu.iew.iewExecLoadInsts                  5909                       # Number of load instructions executed
system.cpu.iew.iewExecSquashedInsts              1238                       # Number of squashed instructions skipped in execute
system.cpu.iew.iewExecutedInsts                 37729                       # Number of executed instructions
system.cpu.iew.iewIQFullEvents                      9                       # Number of times the IQ has become full, causing a stall
system.cpu.iew.iewIdleCycles                        0                       # Number of cycles IEW is idle
system.cpu.iew.iewLSQFullEvents                   897                       # Number of times the LSQ has become full, causing a stall
system.cpu.iew.iewSquashCycles                    942                       # Number of cycles IEW is squashing
system.cpu.iew.iewUnblockCycles                   911                       # Number of cycles IEW is unblocking
system.cpu.iew.lsq.thread0.blockedLoads             0                       # Number of blocked loads due to partial load-store forwarding
system.cpu.iew.lsq.thread0.cacheBlocked            84                       # Number of times an access to memory failed due to the cache being blocked
system.cpu.iew.lsq.thread0.forwLoads               94                       # Number of loads that had data forwarded from stores
system.cpu.iew.lsq.thread0.ignoredResponses            5                       # Number of memory responses ignored because the instruction is squashed
system.cpu.iew.lsq.thread0.invAddrLoads             0                       # Number of loads ignored due to an invalid address
system.cpu.iew.lsq.thread0.invAddrSwpfs             0                       # Number of software prefetches ignored due to an invalid address
system.cpu.iew.lsq.thread0.memOrderViolation           19                       # Number of memory ordering violations
system.cpu.iew.lsq.thread0.rescheduledLoads           98                       # Number of loads that were rescheduled
system.cpu.iew.lsq.thread0.squashedLoads         2323                       # Number of loads squashed
system.cpu.iew.lsq.thread0.squashedStores         2069                       # Number of stores squashed
system.cpu.iew.memOrderViolationEvents             19                       # Number of memory order violations
system.cpu.iew.predictedNotTakenIncorrect          963                       # Number of branches that were predicted not taken incorrectly
system.cpu.iew.predictedTakenIncorrect            119                       # Number of branches that were predicted taken incorrectly
system.cpu.iew.wb_consumers                     31576                       # num instructions consuming a value
system.cpu.iew.wb_count                         36389                       # cumulative count of insts written-back
system.cpu.iew.wb_fanout                     0.566506                       # average fanout of values written-back
system.cpu.iew.wb_producers                     17888                       # num instructions producing a value
system.cpu.iew.wb_rate                       0.306222                       # insts written-back per cycle
system.cpu.iew.wb_sent                          36986                       # cumulative count of insts sent to commit
system.cpu.int_regfile_reads                    41720                       # number of integer regfile reads
system.cpu.int_regfile_writes                   25695                       # number of integer regfile writes
system.cpu.ipc                               0.198027                       # IPC: Instructions Per Cycle
system.cpu.ipc_total                         0.198027                       # IPC: Total IPC of All Threads
system.cpu.iq.FU_type_0::No_OpClass                 9      0.02%      0.02% # Type of FU issued
system.cpu.iq.FU_type_0::IntAlu                 26633     68.35%     68.37% # Type of FU issued
system.cpu.iq.FU_type_0::IntMult                   45      0.12%     68.49% # Type of FU issued
system.cpu.iq.FU_type_0::IntDiv                     4      0.01%     68.50% # Type of FU issued
system.cpu.iq.FU_type_0::FloatAdd                   0      0.00%     68.50% # Type of FU issued
system.cpu.iq.FU_type_0::FloatCmp                   0      0.00%     68.50% # Type of FU issued
system.cpu.iq.FU_type_0::FloatCvt                   0      0.00%     68.50% # Type of FU issued
system.cpu.iq.FU_type_0::FloatMult                  0      0.00%     68.50% # Type of FU issued
system.cpu.iq.FU_type_0::FloatMultAcc               0      0.00%     68.50% # Type of FU issued
system.cpu.iq.FU_type_0::FloatDiv                   0      0.00%     68.50% # Type of FU issued
system.cpu.iq.FU_type_0::FloatMisc                  0      0.00%     68.50% # Type of FU issued
system.cpu.iq.FU_type_0::FloatSqrt                  0      0.00%     68.50% # Type of FU issued
system.cpu.iq.FU_type_0::SimdAdd                   31      0.08%     68.58% # Type of FU issued
system.cpu.iq.FU_type_0::SimdAddAcc                 0      0.00%     68.58% # Type of FU issued
system.cpu.iq.FU_type_0::SimdAlu                   33      0.08%     68.66% # Type of FU issued
system.cpu.iq.FU_type_0::SimdCmp                   36      0.09%     68.75% # Type of FU issued
system.cpu.iq.FU_type_0::SimdCvt                    0      0.00%     68.75% # Type of FU issued
system.cpu.iq.FU_type_0::SimdMisc                  34      0.09%     68.84% # Type of FU issued
system.cpu.iq.FU_type_0::SimdMult                   0      0.00%     68.84% # Type of FU issued
system.cpu.iq.FU_type_0::SimdMultAcc                0      0.00%     68.84% # Type of FU issued
system.cpu.iq.FU_type_0::SimdShift                  0      0.00%     68.84% # Type of FU issued
system.cpu.iq.FU_type_0::SimdShiftAcc               0      0.00%     68.84% # Type of FU issued
system.cpu.iq.FU_type_0::SimdDiv                    0      0.00%     68.84% # Type of FU issued
system.cpu.iq.FU_type_0::SimdSqrt                   0      0.00%     68.84% # Type of FU issued
system.cpu.iq.FU_type_0::SimdFloatAdd               0      0.00%     68.84% # Type of FU issued
system.cpu.iq.FU_type_0::SimdFloatAlu               0      0.00%     68.84% # Type of FU issued
system.cpu.iq.FU_type_0::SimdFloatCmp               0      0.00%     68.84% # Type of FU issued
system.cpu.iq.FU_type_0::SimdFloatCvt               0      0.00%     68.84% # Type of FU issued
system.cpu.iq.FU_type_0::SimdFloatDiv               0      0.00%     68.84% # Type of FU issued
system.cpu.iq.FU_type_0::SimdFloatMisc              0      0.00%     68.84% # Type of FU issued
system.cpu.iq.FU_type_0::SimdFloatMult              0      0.00%     68.84% # Type of FU issued
system.cpu.iq.FU_type_0::SimdFloatMultAcc            0      0.00%     68.84% # Type of FU issued
system.cpu.iq.FU_type_0::SimdFloatSqrt              0      0.00%     68.84% # Type of FU issued
system.cpu.iq.FU_type_0::SimdReduceAdd              0      0.00%     68.84% # Type of FU issued
system.cpu.iq.FU_type_0::SimdReduceAlu              0      0.00%     68.84% # Type of FU issued
system.cpu.iq.FU_type_0::SimdReduceCmp              0      0.00%     68.84% # Type of FU issued
system.cpu.iq.FU_type_0::SimdFloatReduceAdd            0      0.00%     68.84% # Type of FU issued
system.cpu.iq.FU_type_0::SimdFloatReduceCmp            0      0.00%     68.84% # Type of FU issued
system.cpu.iq.FU_type_0::SimdAes                    0      0.00%     68.84% # Type of FU issued
system.cpu.iq.FU_type_0::SimdAesMix                 0      0.00%     68.84% # Type of FU issued
system.cpu.iq.FU_type_0::SimdSha1Hash               0      0.00%     68.84% # Type of FU issued
system.cpu.iq.FU_type_0::SimdSha1Hash2              0      0.00%     68.84% # Type of FU issued
system.cpu.iq.FU_type_0::SimdSha256Hash             0      0.00%     68.84% # Type of FU issued
system.cpu.iq.FU_type_0::SimdSha256Hash2            0      0.00%     68.84% # Type of FU issued
system.cpu.iq.FU_type_0::SimdShaSigma2              0      0.00%     68.84% # Type of FU issued
system.cpu.iq.FU_type_0::SimdShaSigma3              0      0.00%     68.84% # Type of FU issued
system.cpu.iq.FU_type_0::SimdPredAlu                0      0.00%     68.84% # Type of FU issued
system.cpu.iq.FU_type_0::MemRead                 6176     15.85%     84.69% # Type of FU issued
system.cpu.iq.FU_type_0::MemWrite                5966     15.31%    100.00% # Type of FU issued
system.cpu.iq.FU_type_0::FloatMemRead               0      0.00%    100.00% # Type of FU issued
system.cpu.iq.FU_type_0::FloatMemWrite              0      0.00%    100.00% # Type of FU issued
system.cpu.iq.FU_type_0::IprAccess                  0      0.00%    100.00% # Type of FU issued
system.cpu.iq.FU_type_0::InstPrefetch               0      0.00%    100.00% # Type of FU issued
system.cpu.iq.FU_type_0::total                  38967                       # Type of FU issued
system.cpu.iq.fp_alu_accesses                       0                       # Number of floating point alu accesses
system.cpu.iq.fp_inst_queue_reads                   0                       # Number of floating instruction queue reads
system.cpu.iq.fp_inst_queue_wakeup_accesses            0                       # Number of floating instruction queue wakeup accesses
system.cpu.iq.fp_inst_queue_writes                  0                       # Number of floating instruction queue writes
system.cpu.iq.fu_busy_cnt                         558                       # FU busy when requested
system.cpu.iq.fu_busy_rate                   0.014320                       # FU busy rate (busy events/executed inst)
system.cpu.iq.fu_full::No_OpClass                   0      0.00%      0.00% # attempts to use FU when none available
system.cpu.iq.fu_full::IntAlu                     181     32.44%     32.44% # attempts to use FU when none available
system.cpu.iq.fu_full::IntMult                      0      0.00%     32.44% # attempts to use FU when none available
system.cpu.iq.fu_full::IntDiv                       0      0.00%     32.44% # attempts to use FU when none available
system.cpu.iq.fu_full::FloatAdd                     0      0.00%     32.44% # attempts to use FU when none available
system.cpu.iq.fu_full::FloatCmp                     0      0.00%     32.44% # attempts to use FU when none available
system.cpu.iq.fu_full::FloatCvt                     0      0.00%     32.44% # attempts to use FU when none available
system.cpu.iq.fu_full::FloatMult                    0      0.00%     32.44% # attempts to use FU when none available
system.cpu.iq.fu_full::FloatMultAcc                 0      0.00%     32.44% # attempts to use FU when none available
system.cpu.iq.fu_full::FloatDiv                     0      0.00%     32.44% # attempts to use FU when none available
system.cpu.iq.fu_full::FloatMisc                    0      0.00%     32.44% # attempts to use FU when none available
system.cpu.iq.fu_full::FloatSqrt                    0      0.00%     32.44% # attempts to use FU when none available
system.cpu.iq.fu_full::SimdAdd                      0      0.00%     32.44% # attempts to use FU when none available
system.cpu.iq.fu_full::SimdAddAcc                   0      0.00%     32.44% # attempts to use FU when none available
system.cpu.iq.fu_full::SimdAlu                      1      0.18%     32.62% # attempts to use FU when none available
system.cpu.iq.fu_full::SimdCmp                      3      0.54%     33.15% # attempts to use FU when none available
system.cpu.iq.fu_full::SimdCvt                      0      0.00%     33.15% # attempts to use FU when none available
system.cpu.iq.fu_full::SimdMisc                     0      0.00%     33.15% # attempts to use FU when none available
system.cpu.iq.fu_full::SimdMult                     0      0.00%     33.15% # attempts to use FU when none available
system.cpu.iq.fu_full::SimdMultAcc                  0      0.00%     33.15% # attempts to use FU when none available
system.cpu.iq.fu_full::SimdShift                    0      0.00%     33.15% # attempts to use FU when none available
system.cpu.iq.fu_full::SimdShiftAcc                 0      0.00%     33.15% # attempts to use FU when none available
system.cpu.iq.fu_full::SimdDiv                      0      0.00%     33.15% # attempts to use FU when none available
system.cpu.iq.fu_full::SimdSqrt                     0      0.00%     33.15% # attempts to use FU when none available
system.cpu.iq.fu_full::SimdFloatAdd                 0      0.00%     33.15% # attempts to use FU when none available
system.cpu.iq.fu_full::SimdFloatAlu                 0      0.00%     33.15% # attempts to use FU when none available
system.cpu.iq.fu_full::SimdFloatCmp                 0      0.00%     33.15% # attempts to use FU when none available
system.cpu.iq.fu_full::SimdFloatCvt                 0      0.00%     33.15% # attempts to use FU when none available
system.cpu.iq.fu_full::SimdFloatDiv                 0      0.00%     33.15% # attempts to use FU when none available
system.cpu.iq.fu_full::SimdFloatMisc                0      0.00%     33.15% # attempts to use FU when none available
system.cpu.iq.fu_full::SimdFloatMult                0      0.00%     33.15% # attempts to use FU when none available
system.cpu.iq.fu_full::SimdFloatMultAcc             0      0.00%     33.15% # attempts to use FU when none available
system.cpu.iq.fu_full::SimdFloatSqrt                0      0.00%     33.15% # attempts to use FU when none available
system.cpu.iq.fu_full::SimdReduceAdd                0      0.00%     33.15% # attempts to use FU when none available
system.cpu.iq.fu_full::SimdReduceAlu                0      0.00%     33.15% # attempts to use FU when none available
system.cpu.iq.fu_full::SimdReduceCmp                0      0.00%     33.15% # attempts to use FU when none available
system.cpu.iq.fu_full::SimdFloatReduceAdd            0      0.00%     33.15% # attempts to use FU when none available
system.cpu.iq.fu_full::SimdFloatReduceCmp            0      0.00%     33.15% # attempts to use FU when none available
system.cpu.iq.fu_full::SimdAes                      0      0.00%     33.15% # attempts to use FU when none available
system.cpu.iq.fu_full::SimdAesMix                   0      0.00%     33.15% # attempts to use FU when none available
system.cpu.iq.fu_full::SimdSha1Hash                 0      0.00%     33.15% # attempts to use FU when none available
system.cpu.iq.fu_full::SimdSha1Hash2                0      0.00%     33.15% # attempts to use FU when none available
system.cpu.iq.fu_full::SimdSha256Hash               0      0.00%     33.15% # attempts to use FU when none available
system.cpu.iq.fu_full::SimdSha256Hash2              0      0.00%     33.15% # attempts to use FU when none available
system.cpu.iq.fu_full::SimdShaSigma2                0      0.00%     33.15% # attempts to use FU when none available
system.cpu.iq.fu_full::SimdShaSigma3                0      0.00%     33.15% # attempts to use FU when none available
system.cpu.iq.fu_full::SimdPredAlu                  0      0.00%     33.15% # attempts to use FU when none available
system.cpu.iq.fu_full::MemRead                    126     22.58%     55.73% # attempts to use FU when none available
system.cpu.iq.fu_full::MemWrite                   247     44.27%    100.00% # attempts to use FU when none available
system.cpu.iq.fu_full::FloatMemRead                 0      0.00%    100.00% # attempts to use FU when none available
system.cpu.iq.fu_full::FloatMemWrite                0      0.00%    100.00% # attempts to use FU when none available
system.cpu.iq.fu_full::IprAccess                    0      0.00%    100.00% # attempts to use FU when none available
system.cpu.iq.fu_full::InstPrefetch                 0      0.00%    100.00% # attempts to use FU when none available
system.cpu.iq.int_alu_accesses                  38836                       # Number of integer alu accesses
system.cpu.iq.int_inst_queue_reads             122913                       # Number of integer instruction queue reads
system.cpu.iq.int_inst_queue_wakeup_accesses        35858                       # Number of integer instruction queue wakeup accesses
system.cpu.iq.int_inst_queue_writes             55112                       # Number of integer instruction queue writes
system.cpu.iq.iqInstsAdded                      42301                       # Number of instructions added to the IQ (excludes non-spec)
system.cpu.iq.iqInstsIssued                     38967                       # Number of instructions issued
system.cpu.iq.iqNonSpecInstsAdded                  93                       # Number of non-speculative instructions added to the IQ
system.cpu.iq.iqSquashedInstsExamined           13943                       # Number of squashed instructions iterated over during squash; mainly for profiling
system.cpu.iq.iqSquashedInstsIssued               212                       # Number of squashed instructions issued
system.cpu.iq.iqSquashedNonSpecRemoved             39                       # Number of squashed non-spec instructions that were removed
system.cpu.iq.iqSquashedOperandsExamined         8781                       # Number of squashed operands that are examined and possibly removed from graph
system.cpu.iq.issued_per_cycle::samples         45646                       # Number of insts issued each cycle
system.cpu.iq.issued_per_cycle::mean         0.853678                       # Number of insts issued each cycle
system.cpu.iq.issued_per_cycle::stdev        1.702252                       # Number of insts issued each cycle
system.cpu.iq.issued_per_cycle::underflows            0      0.00%      0.00% # Number of insts issued each cycle
system.cpu.iq.issued_per_cycle::0               32988     72.27%     72.27% # Number of insts issued each cycle
system.cpu.iq.issued_per_cycle::1                3246      7.11%     79.38% # Number of insts issued each cycle
system.cpu.iq.issued_per_cycle::2                2732      5.99%     85.37% # Number of insts issued each cycle
system.cpu.iq.issued_per_cycle::3                2136      4.68%     90.05% # Number of insts issued each cycle
system.cpu.iq.issued_per_cycle::4                1655      3.63%     93.67% # Number of insts issued each cycle
system.cpu.iq.issued_per_cycle::5                1181      2.59%     96.26% # Number of insts issued each cycle
system.cpu.iq.issued_per_cycle::6                 957      2.10%     98.35% # Number of insts issued each cycle
system.cpu.iq.issued_per_cycle::7                 426      0.93%     99.29% # Number of insts issued each cycle
system.cpu.iq.issued_per_cycle::8                 325      0.71%    100.00% # Number of insts issued each cycle
system.cpu.iq.issued_per_cycle::overflows            0      0.00%    100.00% # Number of insts issued each cycle
system.cpu.iq.issued_per_cycle::min_value            0                       # Number of insts issued each cycle
system.cpu.iq.issued_per_cycle::max_value            8                       # Number of insts issued each cycle
system.cpu.iq.issued_per_cycle::total           45646                       # Number of insts issued each cycle
system.cpu.iq.rate                           0.327917                       # Inst issue rate
system.cpu.iq.vec_alu_accesses                    680                       # Number of vector alu accesses
system.cpu.iq.vec_inst_queue_reads               1437                       # Number of vector instruction queue reads
system.cpu.iq.vec_inst_queue_wakeup_accesses          531                       # Number of vector instruction queue wakeup accesses
system.cpu.iq.vec_inst_queue_writes              1241                       # Number of vector instruction queue writes
system.cpu.itb.accesses                             0                       # DTB accesses
system.cpu.itb.align_faults                         0                       # Number of TLB faults due to alignment restrictions
system.cpu.itb.domain_faults                        0                       # Number of TLB faults due to domain restrictions
system.cpu.itb.flush_entries                        0                       # Number of entries that have been flushed from TLB
system.cpu.itb.flush_tlb                            0                       # Number of times complete TLB was flushed
system.cpu.itb.flush_tlb_asid                       0                       # Number of times TLB was flushed by ASID
system.cpu.itb.flush_tlb_mva                        0                       # Number of times TLB was flushed by MVA
system.cpu.itb.flush_tlb_mva_asid                   0                       # Number of times TLB was flushed by MVA & ASID
system.cpu.itb.hits                                 0                       # DTB hits
system.cpu.itb.inst_accesses                        0                       # ITB inst accesses
system.cpu.itb.inst_hits                            0                       # ITB inst hits
system.cpu.itb.inst_misses                          0                       # ITB inst misses
system.cpu.itb.misses                               0                       # DTB misses
system.cpu.itb.perms_faults                         0                       # Number of TLB faults due to permissions restrictions
system.cpu.itb.prefetch_faults                      0                       # Number of TLB faults due to prefetch
system.cpu.itb.read_accesses                        0                       # DTB read accesses
system.cpu.itb.read_hits                            0                       # DTB read hits
system.cpu.itb.read_misses                          0                       # DTB read misses
system.cpu.itb.stage2_mmu.stage2_tlb.accesses            0                       # DTB accesses
system.cpu.itb.stage2_mmu.stage2_tlb.align_faults            0                       # Number of TLB faults due to alignment restrictions
system.cpu.itb.stage2_mmu.stage2_tlb.domain_faults            0                       # Number of TLB faults due to domain restrictions
system.cpu.itb.stage2_mmu.stage2_tlb.flush_entries            0                       # Number of entries that have been flushed from TLB
system.cpu.itb.stage2_mmu.stage2_tlb.flush_tlb            0                       # Number of times complete TLB was flushed
system.cpu.itb.stage2_mmu.stage2_tlb.flush_tlb_asid            0                       # Number of times TLB was flushed by ASID
system.cpu.itb.stage2_mmu.stage2_tlb.flush_tlb_mva            0                       # Number of times TLB was flushed by MVA
system.cpu.itb.stage2_mmu.stage2_tlb.flush_tlb_mva_asid            0                       # Number of times TLB was flushed by MVA & ASID
system.cpu.itb.stage2_mmu.stage2_tlb.hits            0                       # DTB hits
system.cpu.itb.stage2_mmu.stage2_tlb.inst_accesses            0                       # ITB inst accesses
system.cpu.itb.stage2_mmu.stage2_tlb.inst_hits            0                       # ITB inst hits
system.cpu.itb.stage2_mmu.stage2_tlb.inst_misses            0                       # ITB inst misses
system.cpu.itb.stage2_mmu.stage2_tlb.misses            0                       # DTB misses
system.cpu.itb.stage2_mmu.stage2_tlb.perms_faults            0                       # Number of TLB faults due to permissions restrictions
system.cpu.itb.stage2_mmu.stage2_tlb.prefetch_faults            0                       # Number of TLB faults due to prefetch
system.cpu.itb.stage2_mmu.stage2_tlb.read_accesses            0                       # DTB read accesses
system.cpu.itb.stage2_mmu.stage2_tlb.read_hits            0                       # DTB read hits
system.cpu.itb.stage2_mmu.stage2_tlb.read_misses            0                       # DTB read misses
system.cpu.itb.stage2_mmu.stage2_tlb.walker.walkRequestOrigin_Requested::Data            0                       # Table walker requests started/completed, data/inst
system.cpu.itb.stage2_mmu.stage2_tlb.walker.walkRequestOrigin_Requested::Inst            0                       # Table walker requests started/completed, data/inst
system.cpu.itb.stage2_mmu.stage2_tlb.walker.walkRequestOrigin_Requested::total            0                       # Table walker requests started/completed, data/inst
system.cpu.itb.stage2_mmu.stage2_tlb.walker.walkRequestOrigin_Completed::Data            0                       # Table walker requests started/completed, data/inst
system.cpu.itb.stage2_mmu.stage2_tlb.walker.walkRequestOrigin_Completed::Inst            0                       # Table walker requests started/completed, data/inst
system.cpu.itb.stage2_mmu.stage2_tlb.walker.walkRequestOrigin_Completed::total            0                       # Table walker requests started/completed, data/inst
system.cpu.itb.stage2_mmu.stage2_tlb.walker.walkRequestOrigin::total            0                       # Table walker requests started/completed, data/inst
system.cpu.itb.stage2_mmu.stage2_tlb.walker.walks            0                       # Table walker walks requested
system.cpu.itb.stage2_mmu.stage2_tlb.write_accesses            0                       # DTB write accesses
system.cpu.itb.stage2_mmu.stage2_tlb.write_hits            0                       # DTB write hits
system.cpu.itb.stage2_mmu.stage2_tlb.write_misses            0                       # DTB write misses
system.cpu.itb.walker.walkRequestOrigin_Requested::Data            0                       # Table walker requests started/completed, data/inst
system.cpu.itb.walker.walkRequestOrigin_Requested::Inst            0                       # Table walker requests started/completed, data/inst
system.cpu.itb.walker.walkRequestOrigin_Requested::total            0                       # Table walker requests started/completed, data/inst
system.cpu.itb.walker.walkRequestOrigin_Completed::Data            0                       # Table walker requests started/completed, data/inst
system.cpu.itb.walker.walkRequestOrigin_Completed::Inst            0                       # Table walker requests started/completed, data/inst
system.cpu.itb.walker.walkRequestOrigin_Completed::total            0                       # Table walker requests started/completed, data/inst
system.cpu.itb.walker.walkRequestOrigin::total            0                       # Table walker requests started/completed, data/inst
system.cpu.itb.walker.walks                         0                       # Table walker walks requested
system.cpu.itb.write_accesses                       0                       # DTB write accesses
system.cpu.itb.write_hits                           0                       # DTB write hits
system.cpu.itb.write_misses                         0                       # DTB write misses
system.cpu.memDep0.conflictingLoads                13                       # Number of conflicting loads.
system.cpu.memDep0.conflictingStores               35                       # Number of conflicting stores.
system.cpu.memDep0.insertedLoads                 6343                       # Number of loads inserted to the mem dependence unit.
system.cpu.memDep0.insertedStores                6727                       # Number of stores inserted to the mem dependence unit.
system.cpu.misc_regfile_reads                   29320                       # number of misc regfile reads
system.cpu.misc_regfile_writes                    145                       # number of misc regfile writes
system.cpu.numCycles                           118832                       # number of cpu cycles simulated
system.cpu.numWorkItemsCompleted                    0                       # number of work items this cpu completed
system.cpu.numWorkItemsStarted                      0                       # number of work items this cpu started
system.cpu.rename.BlockCycles                    3343                       # Number of cycles rename is blocking
system.cpu.rename.CommittedMaps                 26781                       # Number of HB maps that are committed
system.cpu.rename.IQFullEvents                    166                       # Number of times rename has blocked due to IQ full
system.cpu.rename.IdleCycles                    24576                       # Number of cycles rename is idle
system.cpu.rename.LQFullEvents                      2                       # Number of times rename has blocked due to LQ full
system.cpu.rename.ROBFullEvents                    11                       # Number of times rename has blocked due to ROB full
system.cpu.rename.RenameLookups                 65301                       # Number of register rename lookups that rename has made
system.cpu.rename.RenamedInsts                  45417                       # Number of instructions processed by rename
system.cpu.rename.RenamedOperands               42311                       # Number of destination operands rename has renamed
system.cpu.rename.RunCycles                      7793                       # Number of cycles rename is running
system.cpu.rename.SQFullEvents                   1374                       # Number of times rename has blocked due to SQ full
system.cpu.rename.SquashCycles                    942                       # Number of cycles rename is squashing
system.cpu.rename.UnblockCycles                  1880                       # Number of cycles rename is unblocking
system.cpu.rename.UndoneMaps                    15530                       # Number of HB maps that are undone due to squashing
system.cpu.rename.int_rename_lookups            50471                       # Number of integer rename lookups
system.cpu.rename.serializeStallCycles           7112                       # count of cycles rename stalled for serializing inst
system.cpu.rename.serializingInsts                305                       # count of serializing insts renamed
system.cpu.rename.skidInsts                      3470                       # count of insts added to the skid buffer
system.cpu.rename.tempSerializingInsts             95                       # count of temporary serializing insts renamed
system.cpu.rename.vec_rename_lookups              926                       # Number of vector rename lookups
system.cpu.rob.rob_reads                        84424                       # The number of ROB reads
system.cpu.rob.rob_writes                       87320                       # The number of ROB writes
system.cpu.timesIdled                             801                       # Number of times that the entire CPU went into an idle state and unscheduled itself
system.cpu.vec_regfile_reads                      592                       # number of vector regfile reads
system.cpu.vec_regfile_writes                     152                       # number of vector regfile writes
system.cpu.workload.numSyscalls                    17                       # Number of system calls
system.membus.snoop_filter.hit_multi_requests            0                       # Number of requests hitting in the snoop filter with multiple (>1) holders of the requested data.
system.membus.snoop_filter.hit_multi_snoops            0                       # Number of snoops hitting in the snoop filter with multiple (>1) holders of the requested data.
system.membus.snoop_filter.hit_single_requests            0                       # Number of requests hitting in the snoop filter with a single holder of the requested data.
system.membus.snoop_filter.hit_single_snoops            0                       # Number of snoops hitting in the snoop filter with a single holder of the requested data.
system.membus.snoop_filter.tot_requests          1245                       # Total number of requests made to the snoop filter.
system.membus.snoop_filter.tot_snoops               0                       # Total number of snoops made to the snoop filter.
system.tol2bus.snoop_filter.hit_multi_requests            5                       # Number of requests hitting in the snoop filter with multiple (>1) holders of the requested data.
system.tol2bus.snoop_filter.hit_multi_snoops            0                       # Number of snoops hitting in the snoop filter with multiple (>1) holders of the requested data.
system.tol2bus.snoop_filter.hit_single_requests         1589                       # Number of requests hitting in the snoop filter with a single holder of the requested data.
system.tol2bus.snoop_filter.hit_single_snoops            0                       # Number of snoops hitting in the snoop filter with a single holder of the requested data.
system.tol2bus.snoop_filter.tot_requests         3673                       # Total number of requests made to the snoop filter.
system.tol2bus.snoop_filter.tot_snoops              0                       # Total number of snoops made to the snoop filter.
system.membus.trans_dist::ReadResp               1020                       # Transaction distribution
system.membus.trans_dist::ReadExReq               168                       # Transaction distribution
system.membus.trans_dist::ReadExResp              168                       # Transaction distribution
system.membus.trans_dist::ReadSharedReq          1021                       # Transaction distribution
system.membus.trans_dist::InvalidateReq            56                       # Transaction distribution
system.membus.pkt_count_system.l2.mem_side::system.mem_ctrls.port         2433                       # Packet count per connected master and slave (bytes)
system.membus.pkt_count::total                   2433                       # Packet count per connected master and slave (bytes)
system.membus.pkt_size_system.l2.mem_side::system.mem_ctrls.port        76032                       # Cumulative packet size per connected master and slave (bytes)
system.membus.pkt_size::total                   76032                       # Cumulative packet size per connected master and slave (bytes)
system.membus.snoops                                0                       # Total snoops (count)
system.membus.snoopTraffic                          0                       # Total snoop traffic (bytes)
system.membus.snoop_fanout::samples              1245                       # Request fanout histogram
system.membus.snoop_fanout::mean                    0                       # Request fanout histogram
system.membus.snoop_fanout::stdev                   0                       # Request fanout histogram
system.membus.snoop_fanout::underflows              0      0.00%      0.00% # Request fanout histogram
system.membus.snoop_fanout::0                    1245    100.00%    100.00% # Request fanout histogram
system.membus.snoop_fanout::1                       0      0.00%    100.00% # Request fanout histogram
system.membus.snoop_fanout::overflows               0      0.00%    100.00% # Request fanout histogram
system.membus.snoop_fanout::min_value               0                       # Request fanout histogram
system.membus.snoop_fanout::max_value               0                       # Request fanout histogram
system.membus.snoop_fanout::total                1245                       # Request fanout histogram
system.membus.reqLayer0.occupancy             1548000                       # Layer occupancy (ticks)
system.membus.reqLayer0.utilization               2.6                       # Layer utilization (%)
system.membus.respLayer1.occupancy            6284000                       # Layer occupancy (ticks)
system.membus.respLayer1.utilization             10.6                       # Layer utilization (%)
system.membus.power_state.pwrStateResidencyTicks::UNDEFINED     59415500                       # Cumulative time (in ticks) in various power states
system.tol2bus.trans_dist::ReadResp              1860                       # Transaction distribution
system.tol2bus.trans_dist::WritebackClean         1585                       # Transaction distribution
system.tol2bus.trans_dist::CleanEvict               3                       # Transaction distribution
system.tol2bus.trans_dist::ReadExReq              168                       # Transaction distribution
system.tol2bus.trans_dist::ReadExResp             168                       # Transaction distribution
system.tol2bus.trans_dist::ReadCleanReq          1714                       # Transaction distribution
system.tol2bus.trans_dist::ReadSharedReq          147                       # Transaction distribution
system.tol2bus.trans_dist::InvalidateReq           56                       # Transaction distribution
system.tol2bus.trans_dist::InvalidateResp           56                       # Transaction distribution
system.tol2bus.pkt_count_system.cpu.icache.mem_side::system.l2.cpu_side         5012                       # Packet count per connected master and slave (bytes)
system.tol2bus.pkt_count_system.cpu.dcache.mem_side::system.l2.cpu_side          745                       # Packet count per connected master and slave (bytes)
system.tol2bus.pkt_count::total                  5757                       # Packet count per connected master and slave (bytes)
system.tol2bus.pkt_size_system.cpu.icache.mem_side::system.l2.cpu_side       211072                       # Cumulative packet size per connected master and slave (bytes)
system.tol2bus.pkt_size_system.cpu.dcache.mem_side::system.l2.cpu_side        20160                       # Cumulative packet size per connected master and slave (bytes)
system.tol2bus.pkt_size::total                 231232                       # Cumulative packet size per connected master and slave (bytes)
system.tol2bus.snoops                               0                       # Total snoops (count)
system.tol2bus.snoopTraffic                         0                       # Total snoop traffic (bytes)
system.tol2bus.snoop_fanout::samples             2085                       # Request fanout histogram
system.tol2bus.snoop_fanout::mean            0.002878                       # Request fanout histogram
system.tol2bus.snoop_fanout::stdev           0.053580                       # Request fanout histogram
system.tol2bus.snoop_fanout::underflows             0      0.00%      0.00% # Request fanout histogram
system.tol2bus.snoop_fanout::0                   2079     99.71%     99.71% # Request fanout histogram
system.tol2bus.snoop_fanout::1                      6      0.29%    100.00% # Request fanout histogram
system.tol2bus.snoop_fanout::2                      0      0.00%    100.00% # Request fanout histogram
system.tol2bus.snoop_fanout::overflows              0      0.00%    100.00% # Request fanout histogram
system.tol2bus.snoop_fanout::min_value              0                       # Request fanout histogram
system.tol2bus.snoop_fanout::max_value              1                       # Request fanout histogram
system.tol2bus.snoop_fanout::total               2085                       # Request fanout histogram
system.tol2bus.reqLayer0.occupancy            3628770                       # Layer occupancy (ticks)
system.tol2bus.reqLayer0.utilization              6.1                       # Layer utilization (%)
system.tol2bus.respLayer1.occupancy            501498                       # Layer occupancy (ticks)
system.tol2bus.respLayer1.utilization             0.8                       # Layer utilization (%)
system.tol2bus.respLayer0.occupancy           2569500                       # Layer occupancy (ticks)
system.tol2bus.respLayer0.utilization             4.3                       # Layer utilization (%)
system.tol2bus.power_state.pwrStateResidencyTicks::UNDEFINED     59415500                       # Cumulative time (in ticks) in various power states
system.voltage_domain.voltage                       1                       # Voltage in Volts
system.clk_domain.clock                          1000                       # Clock period in ticks
system.l2.demand_hits::.cpu.inst                  282                       # number of demand (read+write) hits
system.l2.demand_hits::.cpu.data                    2                       # number of demand (read+write) hits
system.l2.demand_hits::.cpu.icache.prefetcher          556                       # number of demand (read+write) hits
system.l2.demand_hits::total                      840                       # number of demand (read+write) hits
system.l2.overall_hits::.cpu.inst                 282                       # number of overall hits
system.l2.overall_hits::.cpu.data                   2                       # number of overall hits
system.l2.overall_hits::.cpu.icache.prefetcher          556                       # number of overall hits
system.l2.overall_hits::total                     840                       # number of overall hits
system.l2.demand_misses::.cpu.inst                876                       # number of demand (read+write) misses
system.l2.demand_misses::.cpu.data                313                       # number of demand (read+write) misses
system.l2.demand_misses::total                   1189                       # number of demand (read+write) misses
system.l2.overall_misses::.cpu.inst               876                       # number of overall misses
system.l2.overall_misses::.cpu.data               313                       # number of overall misses
system.l2.overall_misses::total                  1189                       # number of overall misses
system.l2.demand_miss_latency::.cpu.inst     68077500                       # number of demand (read+write) miss cycles
system.l2.demand_miss_latency::.cpu.data     25875500                       # number of demand (read+write) miss cycles
system.l2.demand_miss_latency::total         93953000                       # number of demand (read+write) miss cycles
system.l2.overall_miss_latency::.cpu.inst     68077500                       # number of overall miss cycles
system.l2.overall_miss_latency::.cpu.data     25875500                       # number of overall miss cycles
system.l2.overall_miss_latency::total        93953000                       # number of overall miss cycles
system.l2.demand_accesses::.cpu.inst             1158                       # number of demand (read+write) accesses
system.l2.demand_accesses::.cpu.data              315                       # number of demand (read+write) accesses
system.l2.demand_accesses::.cpu.icache.prefetcher          556                       # number of demand (read+write) accesses
system.l2.demand_accesses::total                 2029                       # number of demand (read+write) accesses
system.l2.overall_accesses::.cpu.inst            1158                       # number of overall (read+write) accesses
system.l2.overall_accesses::.cpu.data             315                       # number of overall (read+write) accesses
system.l2.overall_accesses::.cpu.icache.prefetcher          556                       # number of overall (read+write) accesses
system.l2.overall_accesses::total                2029                       # number of overall (read+write) accesses
system.l2.demand_miss_rate::.cpu.inst        0.756477                       # miss rate for demand accesses
system.l2.demand_miss_rate::.cpu.data        0.993651                       # miss rate for demand accesses
system.l2.demand_miss_rate::total            0.586003                       # miss rate for demand accesses
system.l2.overall_miss_rate::.cpu.inst       0.756477                       # miss rate for overall accesses
system.l2.overall_miss_rate::.cpu.data       0.993651                       # miss rate for overall accesses
system.l2.overall_miss_rate::total           0.586003                       # miss rate for overall accesses
system.l2.demand_avg_miss_latency::.cpu.inst 77714.041096                       # average overall miss latency
system.l2.demand_avg_miss_latency::.cpu.data 82669.329073                       # average overall miss latency
system.l2.demand_avg_miss_latency::total 79018.502944                       # average overall miss latency
system.l2.overall_avg_miss_latency::.cpu.inst 77714.041096                       # average overall miss latency
system.l2.overall_avg_miss_latency::.cpu.data 82669.329073                       # average overall miss latency
system.l2.overall_avg_miss_latency::total 79018.502944                       # average overall miss latency
system.l2.blocked_cycles::no_mshrs                  0                       # number of cycles access was blocked
system.l2.blocked_cycles::no_targets                0                       # number of cycles access was blocked
system.l2.blocked::no_mshrs                         0                       # number of cycles access was blocked
system.l2.blocked::no_targets                       0                       # number of cycles access was blocked
system.l2.avg_blocked_cycles::no_mshrs            nan                       # average number of cycles each access was blocked
system.l2.avg_blocked_cycles::no_targets          nan                       # average number of cycles each access was blocked
system.l2.demand_mshr_misses::.cpu.inst           876                       # number of demand (read+write) MSHR misses
system.l2.demand_mshr_misses::.cpu.data           313                       # number of demand (read+write) MSHR misses
system.l2.demand_mshr_misses::total              1189                       # number of demand (read+write) MSHR misses
system.l2.overall_mshr_misses::.cpu.inst          876                       # number of overall MSHR misses
system.l2.overall_mshr_misses::.cpu.data          313                       # number of overall MSHR misses
system.l2.overall_mshr_misses::total             1189                       # number of overall MSHR misses
system.l2.demand_mshr_miss_latency::.cpu.inst     59327500                       # number of demand (read+write) MSHR miss cycles
system.l2.demand_mshr_miss_latency::.cpu.data     22745500                       # number of demand (read+write) MSHR miss cycles
system.l2.demand_mshr_miss_latency::total     82073000                       # number of demand (read+write) MSHR miss cycles
system.l2.overall_mshr_miss_latency::.cpu.inst     59327500                       # number of overall MSHR miss cycles
system.l2.overall_mshr_miss_latency::.cpu.data     22745500                       # number of overall MSHR miss cycles
system.l2.overall_mshr_miss_latency::total     82073000                       # number of overall MSHR miss cycles
system.l2.demand_mshr_miss_rate::.cpu.inst     0.756477                       # mshr miss rate for demand accesses
system.l2.demand_mshr_miss_rate::.cpu.data     0.993651                       # mshr miss rate for demand accesses
system.l2.demand_mshr_miss_rate::total       0.586003                       # mshr miss rate for demand accesses
system.l2.overall_mshr_miss_rate::.cpu.inst     0.756477                       # mshr miss rate for overall accesses
system.l2.overall_mshr_miss_rate::.cpu.data     0.993651                       # mshr miss rate for overall accesses
system.l2.overall_mshr_miss_rate::total      0.586003                       # mshr miss rate for overall accesses
system.l2.demand_avg_mshr_miss_latency::.cpu.inst 67725.456621                       # average overall mshr miss latency
system.l2.demand_avg_mshr_miss_latency::.cpu.data 72669.329073                       # average overall mshr miss latency
system.l2.demand_avg_mshr_miss_latency::total 69026.913373                       # average overall mshr miss latency
system.l2.overall_avg_mshr_miss_latency::.cpu.inst 67725.456621                       # average overall mshr miss latency
system.l2.overall_avg_mshr_miss_latency::.cpu.data 72669.329073                       # average overall mshr miss latency
system.l2.overall_avg_mshr_miss_latency::total 69026.913373                       # average overall mshr miss latency
system.l2.replacements                              0                       # number of replacements
system.l2.WritebackClean_hits::.writebacks         1580                       # number of WritebackClean hits
system.l2.WritebackClean_hits::total             1580                       # number of WritebackClean hits
system.l2.WritebackClean_accesses::.writebacks         1580                       # number of WritebackClean accesses(hits+misses)
system.l2.WritebackClean_accesses::total         1580                       # number of WritebackClean accesses(hits+misses)
system.l2.ReadExReq_misses::.cpu.data             168                       # number of ReadExReq misses
system.l2.ReadExReq_misses::total                 168                       # number of ReadExReq misses
system.l2.ReadExReq_miss_latency::.cpu.data     13560500                       # number of ReadExReq miss cycles
system.l2.ReadExReq_miss_latency::total      13560500                       # number of ReadExReq miss cycles
system.l2.ReadExReq_accesses::.cpu.data           168                       # number of ReadExReq accesses(hits+misses)
system.l2.ReadExReq_accesses::total               168                       # number of ReadExReq accesses(hits+misses)
system.l2.ReadExReq_miss_rate::.cpu.data            1                       # miss rate for ReadExReq accesses
system.l2.ReadExReq_miss_rate::total                1                       # miss rate for ReadExReq accesses
system.l2.ReadExReq_avg_miss_latency::.cpu.data 80717.261905                       # average ReadExReq miss latency
system.l2.ReadExReq_avg_miss_latency::total 80717.261905                       # average ReadExReq miss latency
system.l2.ReadExReq_mshr_misses::.cpu.data          168                       # number of ReadExReq MSHR misses
system.l2.ReadExReq_mshr_misses::total            168                       # number of ReadExReq MSHR misses
system.l2.ReadExReq_mshr_miss_latency::.cpu.data     11880500                       # number of ReadExReq MSHR miss cycles
system.l2.ReadExReq_mshr_miss_latency::total     11880500                       # number of ReadExReq MSHR miss cycles
system.l2.ReadExReq_mshr_miss_rate::.cpu.data            1                       # mshr miss rate for ReadExReq accesses
system.l2.ReadExReq_mshr_miss_rate::total            1                       # mshr miss rate for ReadExReq accesses
system.l2.ReadExReq_avg_mshr_miss_latency::.cpu.data 70717.261905                       # average ReadExReq mshr miss latency
system.l2.ReadExReq_avg_mshr_miss_latency::total 70717.261905                       # average ReadExReq mshr miss latency
system.l2.ReadCleanReq_hits::.cpu.inst            282                       # number of ReadCleanReq hits
system.l2.ReadCleanReq_hits::.cpu.icache.prefetcher          556                       # number of ReadCleanReq hits
system.l2.ReadCleanReq_hits::total                838                       # number of ReadCleanReq hits
system.l2.ReadCleanReq_misses::.cpu.inst          876                       # number of ReadCleanReq misses
system.l2.ReadCleanReq_misses::total              876                       # number of ReadCleanReq misses
system.l2.ReadCleanReq_miss_latency::.cpu.inst     68077500                       # number of ReadCleanReq miss cycles
system.l2.ReadCleanReq_miss_latency::total     68077500                       # number of ReadCleanReq miss cycles
system.l2.ReadCleanReq_accesses::.cpu.inst         1158                       # number of ReadCleanReq accesses(hits+misses)
system.l2.ReadCleanReq_accesses::.cpu.icache.prefetcher          556                       # number of ReadCleanReq accesses(hits+misses)
system.l2.ReadCleanReq_accesses::total           1714                       # number of ReadCleanReq accesses(hits+misses)
system.l2.ReadCleanReq_miss_rate::.cpu.inst     0.756477                       # miss rate for ReadCleanReq accesses
system.l2.ReadCleanReq_miss_rate::total      0.511085                       # miss rate for ReadCleanReq accesses
system.l2.ReadCleanReq_avg_miss_latency::.cpu.inst 77714.041096                       # average ReadCleanReq miss latency
system.l2.ReadCleanReq_avg_miss_latency::total 77714.041096                       # average ReadCleanReq miss latency
system.l2.ReadCleanReq_mshr_misses::.cpu.inst          876                       # number of ReadCleanReq MSHR misses
system.l2.ReadCleanReq_mshr_misses::total          876                       # number of ReadCleanReq MSHR misses
[...]
system.cpu.dcache.overall_misses::.cpu.data         1228                       # number of overall misses
system.cpu.dcache.overall_misses::total          1228                       # number of overall misses
system.cpu.dcache.demand_miss_latency::.cpu.data     86184427                       # number of demand (read+write) miss cycles
system.cpu.dcache.demand_miss_latency::total     86184427                       # number of demand (read+write) miss cycles
system.cpu.dcache.overall_miss_latency::.cpu.data     86184427                       # number of overall miss cycles
system.cpu.dcache.overall_miss_latency::total     86184427                       # number of overall miss cycles
system.cpu.dcache.demand_accesses::.cpu.data        10107                       # number of demand (read+write) accesses
system.cpu.dcache.demand_accesses::total        10107                       # number of demand (read+write) accesses
system.cpu.dcache.overall_accesses::.cpu.data        10132                       # number of overall (read+write) accesses
system.cpu.dcache.overall_accesses::total        10132                       # number of overall (read+write) accesses
system.cpu.dcache.demand_miss_rate::.cpu.data     0.121104                       # miss rate for demand accesses
system.cpu.dcache.demand_miss_rate::total     0.121104                       # miss rate for demand accesses
system.cpu.dcache.overall_miss_rate::.cpu.data     0.121200                       # miss rate for overall accesses
system.cpu.dcache.overall_miss_rate::total     0.121200                       # miss rate for overall accesses
system.cpu.dcache.demand_avg_miss_latency::.cpu.data 70412.113562                       # average overall miss latency
system.cpu.dcache.demand_avg_miss_latency::total 70412.113562                       # average overall miss latency
system.cpu.dcache.overall_avg_miss_latency::.cpu.data 70182.758143                       # average overall miss latency
system.cpu.dcache.overall_avg_miss_latency::total 70182.758143                       # average overall miss latency
system.cpu.dcache.blocked_cycles::no_mshrs         3108                       # number of cycles access was blocked
system.cpu.dcache.blocked_cycles::no_targets            0                       # number of cycles access was blocked
system.cpu.dcache.blocked::no_mshrs                94                       # number of cycles access was blocked
system.cpu.dcache.blocked::no_targets               0                       # number of cycles access was blocked
system.cpu.dcache.avg_blocked_cycles::no_mshrs    33.063830                       # average number of cycles each access was blocked
system.cpu.dcache.avg_blocked_cycles::no_targets          nan                       # average number of cycles each access was blocked
system.cpu.dcache.demand_mshr_hits::.cpu.data          858                       # number of demand (read+write) MSHR hits
system.cpu.dcache.demand_mshr_hits::total          858                       # number of demand (read+write) MSHR hits
system.cpu.dcache.overall_mshr_hits::.cpu.data          858                       # number of overall MSHR hits
system.cpu.dcache.overall_mshr_hits::total          858                       # number of overall MSHR hits
system.cpu.dcache.demand_mshr_misses::.cpu.data          366                       # number of demand (read+write) MSHR misses
system.cpu.dcache.demand_mshr_misses::total          366                       # number of demand (read+write) MSHR misses
system.cpu.dcache.overall_mshr_misses::.cpu.data          370                       # number of overall MSHR misses
system.cpu.dcache.overall_mshr_misses::total          370                       # number of overall MSHR misses
system.cpu.dcache.demand_mshr_miss_latency::.cpu.data     27611964                       # number of demand (read+write) MSHR miss cycles
system.cpu.dcache.demand_mshr_miss_latency::total     27611964                       # number of demand (read+write) MSHR miss cycles
system.cpu.dcache.overall_mshr_miss_latency::.cpu.data     28013964                       # number of overall MSHR miss cycles
system.cpu.dcache.overall_mshr_miss_latency::total     28013964                       # number of overall MSHR miss cycles
system.cpu.dcache.demand_mshr_miss_rate::.cpu.data     0.036213                       # mshr miss rate for demand accesses
system.cpu.dcache.demand_mshr_miss_rate::total     0.036213                       # mshr miss rate for demand accesses
system.cpu.dcache.overall_mshr_miss_rate::.cpu.data     0.036518                       # mshr miss rate for overall accesses
system.cpu.dcache.overall_mshr_miss_rate::total     0.036518                       # mshr miss rate for overall accesses
system.cpu.dcache.demand_avg_mshr_miss_latency::.cpu.data 75442.524590                       # average overall mshr miss latency
system.cpu.dcache.demand_avg_mshr_miss_latency::total 75442.524590                       # average overall mshr miss latency
system.cpu.dcache.overall_avg_mshr_miss_latency::.cpu.data 75713.416216                       # average overall mshr miss latency
system.cpu.dcache.overall_avg_mshr_miss_latency::total 75713.416216                       # average overall mshr miss latency
system.cpu.dcache.replacements                      3                       # number of replacements
system.cpu.dcache.ReadReq_hits::.cpu.data         5149                       # number of ReadReq hits
system.cpu.dcache.ReadReq_hits::total            5149                       # number of ReadReq hits
system.cpu.dcache.ReadReq_misses::.cpu.data          328                       # number of ReadReq misses
system.cpu.dcache.ReadReq_misses::total           328                       # number of ReadReq misses
system.cpu.dcache.ReadReq_miss_latency::.cpu.data     23253500                       # number of ReadReq miss cycles
system.cpu.dcache.ReadReq_miss_latency::total     23253500                       # number of ReadReq miss cycles
system.cpu.dcache.ReadReq_accesses::.cpu.data         5477                       # number of ReadReq accesses(hits+misses)
system.cpu.dcache.ReadReq_accesses::total         5477                       # number of ReadReq accesses(hits+misses)
system.cpu.dcache.ReadReq_miss_rate::.cpu.data     0.059887                       # miss rate for ReadReq accesses
system.cpu.dcache.ReadReq_miss_rate::total     0.059887                       # miss rate for ReadReq accesses
system.cpu.dcache.ReadReq_avg_miss_latency::.cpu.data 70894.817073                       # average ReadReq miss latency
system.cpu.dcache.ReadReq_avg_miss_latency::total 70894.817073                       # average ReadReq miss latency
system.cpu.dcache.ReadReq_mshr_hits::.cpu.data          186                       # number of ReadReq MSHR hits
system.cpu.dcache.ReadReq_mshr_hits::total          186                       # number of ReadReq MSHR hits
system.cpu.dcache.ReadReq_mshr_misses::.cpu.data          142                       # number of ReadReq MSHR misses
system.cpu.dcache.ReadReq_mshr_misses::total          142                       # number of ReadReq MSHR misses
system.cpu.dcache.ReadReq_mshr_miss_latency::.cpu.data     12066500                       # number of ReadReq MSHR miss cycles
system.cpu.dcache.ReadReq_mshr_miss_latency::total     12066500                       # number of ReadReq MSHR miss cycles
system.cpu.dcache.ReadReq_mshr_miss_rate::.cpu.data     0.025927                       # mshr miss rate for ReadReq accesses
system.cpu.dcache.ReadReq_mshr_miss_rate::total     0.025927                       # mshr miss rate for ReadReq accesses
system.cpu.dcache.ReadReq_avg_mshr_miss_latency::.cpu.data 84975.352113                       # average ReadReq mshr miss latency
system.cpu.dcache.ReadReq_avg_mshr_miss_latency::total 84975.352113                       # average ReadReq mshr miss latency
system.cpu.dcache.WriteReq_hits::.cpu.data         3734                       # number of WriteReq hits
system.cpu.dcache.WriteReq_hits::total           3734                       # number of WriteReq hits
system.cpu.dcache.WriteReq_misses::.cpu.data          845                       # number of WriteReq misses
system.cpu.dcache.WriteReq_misses::total          845                       # number of WriteReq misses
system.cpu.dcache.WriteReq_miss_latency::.cpu.data     61308955                       # number of WriteReq miss cycles
system.cpu.dcache.WriteReq_miss_latency::total     61308955                       # number of WriteReq miss cycles
system.cpu.dcache.WriteReq_accesses::.cpu.data         4579                       # number of WriteReq accesses(hits+misses)
system.cpu.dcache.WriteReq_accesses::total         4579                       # number of WriteReq accesses(hits+misses)
system.cpu.dcache.WriteReq_miss_rate::.cpu.data     0.184538                       # miss rate for WriteReq accesses
system.cpu.dcache.WriteReq_miss_rate::total     0.184538                       # miss rate for WriteReq accesses
system.cpu.dcache.WriteReq_avg_miss_latency::.cpu.data 72554.976331                       # average WriteReq miss latency
system.cpu.dcache.WriteReq_avg_miss_latency::total 72554.976331                       # average WriteReq miss latency
system.cpu.dcache.WriteReq_mshr_hits::.cpu.data          672                       # number of WriteReq MSHR hits
system.cpu.dcache.WriteReq_mshr_hits::total          672                       # number of WriteReq MSHR hits
system.cpu.dcache.WriteReq_mshr_misses::.cpu.data          173                       # number of WriteReq MSHR misses
system.cpu.dcache.WriteReq_mshr_misses::total          173                       # number of WriteReq MSHR misses
system.cpu.dcache.WriteReq_mshr_miss_latency::.cpu.data     13974492                       # number of WriteReq MSHR miss cycles
system.cpu.dcache.WriteReq_mshr_miss_latency::total     13974492                       # number of WriteReq MSHR miss cycles
system.cpu.dcache.WriteReq_mshr_miss_rate::.cpu.data     0.037781                       # mshr miss rate for WriteReq accesses
system.cpu.dcache.WriteReq_mshr_miss_rate::total     0.037781                       # mshr miss rate for WriteReq accesses
system.cpu.dcache.WriteReq_avg_mshr_miss_latency::.cpu.data 80777.410405                       # average WriteReq mshr miss latency
system.cpu.dcache.WriteReq_avg_mshr_miss_latency::total 80777.410405                       # average WriteReq mshr miss latency
system.cpu.dcache.SoftPFReq_hits::.cpu.data           21                       # number of SoftPFReq hits
system.cpu.dcache.SoftPFReq_hits::total            21                       # number of SoftPFReq hits
system.cpu.dcache.SoftPFReq_misses::.cpu.data            4                       # number of SoftPFReq misses
system.cpu.dcache.SoftPFReq_misses::total            4                       # number of SoftPFReq misses
system.cpu.dcache.SoftPFReq_accesses::.cpu.data           25                       # number of SoftPFReq accesses(hits+misses)
system.cpu.dcache.SoftPFReq_accesses::total           25                       # number of SoftPFReq accesses(hits+misses)
system.cpu.dcache.SoftPFReq_miss_rate::.cpu.data     0.160000                       # miss rate for SoftPFReq accesses
system.cpu.dcache.SoftPFReq_miss_rate::total     0.160000                       # miss rate for SoftPFReq accesses
system.cpu.dcache.SoftPFReq_mshr_misses::.cpu.data            4                       # number of SoftPFReq MSHR misses
system.cpu.dcache.SoftPFReq_mshr_misses::total            4                       # number of SoftPFReq MSHR misses
system.cpu.dcache.SoftPFReq_mshr_miss_latency::.cpu.data       402000                       # number of SoftPFReq MSHR miss cycles
system.cpu.dcache.SoftPFReq_mshr_miss_latency::total       402000                       # number of SoftPFReq MSHR miss cycles
system.cpu.dcache.SoftPFReq_mshr_miss_rate::.cpu.data     0.160000                       # mshr miss rate for SoftPFReq accesses
system.cpu.dcache.SoftPFReq_mshr_miss_rate::total     0.160000                       # mshr miss rate for SoftPFReq accesses
system.cpu.dcache.SoftPFReq_avg_mshr_miss_latency::.cpu.data       100500                       # average SoftPFReq mshr miss latency
system.cpu.dcache.SoftPFReq_avg_mshr_miss_latency::total       100500                       # average SoftPFReq mshr miss latency
system.cpu.dcache.WriteLineReq_misses::.cpu.data           51                       # number of WriteLineReq misses
system.cpu.dcache.WriteLineReq_misses::total           51                       # number of WriteLineReq misses
system.cpu.dcache.WriteLineReq_miss_latency::.cpu.data      1621972                       # number of WriteLineReq miss cycles
system.cpu.dcache.WriteLineReq_miss_latency::total      1621972                       # number of WriteLineReq miss cycles
system.cpu.dcache.WriteLineReq_accesses::.cpu.data           51                       # number of WriteLineReq accesses(hits+misses)
system.cpu.dcache.WriteLineReq_accesses::total           51                       # number of WriteLineReq accesses(hits+misses)
system.cpu.dcache.WriteLineReq_miss_rate::.cpu.data            1                       # miss rate for WriteLineReq accesses
system.cpu.dcache.WriteLineReq_miss_rate::total            1                       # miss rate for WriteLineReq accesses
system.cpu.dcache.WriteLineReq_avg_miss_latency::.cpu.data 31803.372549                       # average WriteLineReq miss latency
system.cpu.dcache.WriteLineReq_avg_miss_latency::total 31803.372549                       # average WriteLineReq miss latency
system.cpu.dcache.WriteLineReq_mshr_misses::.cpu.data           51                       # number of WriteLineReq MSHR misses
system.cpu.dcache.WriteLineReq_mshr_misses::total           51                       # number of WriteLineReq MSHR misses
system.cpu.dcache.WriteLineReq_mshr_miss_latency::.cpu.data      1570972                       # number of WriteLineReq MSHR miss cycles
system.cpu.dcache.WriteLineReq_mshr_miss_latency::total      1570972                       # number of WriteLineReq MSHR miss cycles
system.cpu.dcache.WriteLineReq_mshr_miss_rate::.cpu.data            1                       # mshr miss rate for WriteLineReq accesses
system.cpu.dcache.WriteLineReq_mshr_miss_rate::total            1                       # mshr miss rate for WriteLineReq accesses
system.cpu.dcache.WriteLineReq_avg_mshr_miss_latency::.cpu.data 30803.372549                       # average WriteLineReq mshr miss latency
system.cpu.dcache.WriteLineReq_avg_mshr_miss_latency::total 30803.372549                       # average WriteLineReq mshr miss latency
system.cpu.dcache.LoadLockedReq_hits::.cpu.data           49                       # number of LoadLockedReq hits
system.cpu.dcache.LoadLockedReq_hits::total           49                       # number of LoadLockedReq hits
system.cpu.dcache.LoadLockedReq_misses::.cpu.data            1                       # number of LoadLockedReq misses
system.cpu.dcache.LoadLockedReq_misses::total            1                       # number of LoadLockedReq misses
system.cpu.dcache.LoadLockedReq_miss_latency::.cpu.data       104000                       # number of LoadLockedReq miss cycles
system.cpu.dcache.LoadLockedReq_miss_latency::total       104000                       # number of LoadLockedReq miss cycles
system.cpu.dcache.LoadLockedReq_accesses::.cpu.data           50                       # number of LoadLockedReq accesses(hits+misses)
system.cpu.dcache.LoadLockedReq_accesses::total           50                       # number of LoadLockedReq accesses(hits+misses)
system.cpu.dcache.LoadLockedReq_miss_rate::.cpu.data     0.020000                       # miss rate for LoadLockedReq accesses
system.cpu.dcache.LoadLockedReq_miss_rate::total     0.020000                       # miss rate for LoadLockedReq accesses
system.cpu.dcache.LoadLockedReq_avg_miss_latency::.cpu.data       104000                       # average LoadLockedReq miss latency
system.cpu.dcache.LoadLockedReq_avg_miss_latency::total       104000                       # average LoadLockedReq miss latency
system.cpu.dcache.LoadLockedReq_mshr_misses::.cpu.data            1                       # number of LoadLockedReq MSHR misses
system.cpu.dcache.LoadLockedReq_mshr_misses::total            1                       # number of LoadLockedReq MSHR misses
system.cpu.dcache.LoadLockedReq_mshr_miss_latency::.cpu.data       103000                       # number of LoadLockedReq MSHR miss cycles
system.cpu.dcache.LoadLockedReq_mshr_miss_latency::total       103000                       # number of LoadLockedReq MSHR miss cycles
system.cpu.dcache.LoadLockedReq_mshr_miss_rate::.cpu.data     0.020000                       # mshr miss rate for LoadLockedReq accesses
system.cpu.dcache.LoadLockedReq_mshr_miss_rate::total     0.020000                       # mshr miss rate for LoadLockedReq accesses
system.cpu.dcache.LoadLockedReq_avg_mshr_miss_latency::.cpu.data       103000                       # average LoadLockedReq mshr miss latency
system.cpu.dcache.LoadLockedReq_avg_mshr_miss_latency::total       103000                       # average LoadLockedReq mshr miss latency
system.cpu.dcache.StoreCondReq_hits::.cpu.data           36                       # number of StoreCondReq hits
system.cpu.dcache.StoreCondReq_hits::total           36                       # number of StoreCondReq hits
system.cpu.dcache.StoreCondReq_accesses::.cpu.data           36                       # number of StoreCondReq accesses(hits+misses)
system.cpu.dcache.StoreCondReq_accesses::total           36                       # number of StoreCondReq accesses(hits+misses)
system.cpu.dcache.power_state.pwrStateResidencyTicks::UNDEFINED     59415500                       # Cumulative time (in ticks) in various power states
system.cpu.dcache.tags.tagsinuse           240.686540                       # Cycle average of tags in use
system.cpu.dcache.tags.total_refs                9360                       # Total number of references to valid blocks.
system.cpu.dcache.tags.sampled_refs               371                       # Sample count of references to valid blocks.
system.cpu.dcache.tags.avg_refs             25.229111                       # Average number of references to valid blocks.
system.cpu.dcache.tags.warmup_cycle            176500                       # Cycle when the warmup percentage was hit.
system.cpu.dcache.tags.occ_blocks::.cpu.data   240.686540                       # Average occupied blocks per requestor
system.cpu.dcache.tags.occ_percent::.cpu.data     0.235045                       # Average percentage of cache occupancy
system.cpu.dcache.tags.occ_percent::total     0.235045                       # Average percentage of cache occupancy
system.cpu.dcache.tags.occ_task_id_blocks::1024          368                       # Occupied blocks per task id
system.cpu.dcache.tags.age_task_id_blocks_1024::0           27                       # Occupied blocks per task id
system.cpu.dcache.tags.age_task_id_blocks_1024::1          341                       # Occupied blocks per task id
system.cpu.dcache.tags.occ_task_id_percent::1024     0.359375                       # Percentage of cache occupancy per task id
system.cpu.dcache.tags.tag_accesses             20807                       # Number of tag accesses
system.cpu.dcache.tags.data_accesses            20807                       # Number of data accesses
system.cpu.dcache.tags.power_state.pwrStateResidencyTicks::UNDEFINED     59415500                       # Cumulative time (in ticks) in various power states
system.cpu.power_state.pwrStateResidencyTicks::ON     59415500                       # Cumulative time (in ticks) in various power states

---------- End Simulation Statistics   ----------
