
---------- Begin Simulation Statistics ----------
final_tick                                 1197991500                       # Number of ticks from beginning of simulation (restored from checkpoints and never reset)
host_inst_rate                                 323991                       # Simulator instruction rate (inst/s)
host_mem_usage                                 859980                       # Number of bytes of host memory used
host_op_rate                                   329152                       # Simulator op (including micro ops) rate (op/s)
host_seconds                                    30.87                       # Real time elapsed on the host
host_tick_rate                               38813607                       # Simulator tick rate (ticks/s)
sim_freq                                 1000000000000                       # Frequency of simulated ticks
sim_insts                                    10000002                       # Number of instructions simulated
sim_ops                                      10159353                       # Number of ops (including micro ops) simulated
sim_seconds                                  0.001198                       # Number of seconds simulated
sim_ticks                                  1197991500                       # Number of ticks simulated
system.cpu.branchPred.BTBCorrect                    0                       # Number of correct BTB predictions (this stat may not work properly.
system.cpu.branchPred.BTBHitPct             99.924097                       # BTB Hit Percentage
system.cpu.branchPred.BTBHits                 1257236                       # Number of BTB hits
system.cpu.branchPred.BTBLookups              1258191                       # Number of BTB lookups
system.cpu.branchPred.RASInCorrect                  0                       # Number of incorrect RAS predictions.
system.cpu.branchPred.condIncorrect              1905                       # Number of conditional branches incorrect
system.cpu.branchPred.condPredicted           1899668                       # Number of conditional branches predicted
system.cpu.branchPred.indirectHits                 10                       # Number of indirect target hits.
system.cpu.branchPred.indirectLookups             149                       # Number of indirect predictor lookups.
system.cpu.branchPred.indirectMisses              139                       # Number of indirect misses.
system.cpu.branchPred.lookups                 1935551                       # Number of BP lookups
system.cpu.branchPred.usedRAS                   11179                       # Number of times the RAS was used to get a target.
system.cpu.branchPredindirectMispredicted           57                       # Number of mispredicted indirect branches.
system.cpu.cc_regfile_reads                   5559813                       # number of cc regfile reads
system.cpu.cc_regfile_writes                  5577524                       # number of cc regfile writes
system.cpu.commit.amos                              0                       # Number of atomic instructions committed
system.cpu.commit.branchMispredicts              1547                       # The number of times a branch was mispredicted
system.cpu.commit.branches                    1922758                       # Number of branches committed
system.cpu.commit.bw_lim_events                808960                       # number cycles where commit BW limit reached
system.cpu.commit.commitNonSpecStalls              56                       # The number of times commit has been forced to stall to communicate backwards
system.cpu.commit.commitSquashedInsts           33522                       # The number of squashed insts skipped by commit
system.cpu.commit.committedInsts             10000096                       # Number of instructions committed
system.cpu.commit.committedOps               10159447                       # Number of ops (including micro ops) committed
system.cpu.commit.committed_per_cycle::samples      2313284                       # Number of insts commited each cycle
system.cpu.commit.committed_per_cycle::mean     4.391785                       # Number of insts commited each cycle
system.cpu.commit.committed_per_cycle::stdev     3.320490                       # Number of insts commited each cycle
system.cpu.commit.committed_per_cycle::underflows            0      0.00%      0.00% # Number of insts commited each cycle
system.cpu.commit.committed_per_cycle::0       276359     11.95%     11.95% # Number of insts commited each cycle
system.cpu.commit.committed_per_cycle::1       489794     21.17%     33.12% # Number of insts commited each cycle
system.cpu.commit.committed_per_cycle::2       336209     14.53%     47.65% # Number of insts commited each cycle
system.cpu.commit.committed_per_cycle::3        36011      1.56%     49.21% # Number of insts commited each cycle
system.cpu.commit.committed_per_cycle::4        21193      0.92%     50.13% # Number of insts commited each cycle
system.cpu.commit.committed_per_cycle::5         3196      0.14%     50.26% # Number of insts commited each cycle
system.cpu.commit.committed_per_cycle::6        74164      3.21%     53.47% # Number of insts commited each cycle
system.cpu.commit.committed_per_cycle::7       267398     11.56%     65.03% # Number of insts commited each cycle
system.cpu.commit.committed_per_cycle::8       808960     34.97%    100.00% # Number of insts commited each cycle
system.cpu.commit.committed_per_cycle::overflows            0      0.00%    100.00% # Number of insts commited each cycle
system.cpu.commit.committed_per_cycle::min_value            0                       # Number of insts commited each cycle
system.cpu.commit.committed_per_cycle::max_value            8                       # Number of insts commited each cycle
system.cpu.commit.committed_per_cycle::total      2313284                       # Number of insts commited each cycle
system.cpu.commit.fp_insts                          0                       # Number of committed floating point instructions.
system.cpu.commit.function_calls                10907                       # Number of function calls committed.
system.cpu.commit.int_insts                   8219726                       # Number of committed integer instructions.
system.cpu.commit.loads                       2577573                       # Number of loads committed
system.cpu.commit.membars                          48                       # Number of memory barriers committed
system.cpu.commit.op_class_0::No_OpClass           10      0.00%      0.00% # Class of committed instruction
system.cpu.commit.op_class_0::IntAlu          6883583     67.76%     67.76% # Class of committed instruction
system.cpu.commit.op_class_0::IntMult            6246      0.06%     67.82% # Class of committed instruction
system.cpu.commit.op_class_0::IntDiv               14      0.00%     67.82% # Class of committed instruction
system.cpu.commit.op_class_0::FloatAdd           4094      0.04%     67.86% # Class of committed instruction
system.cpu.commit.op_class_0::FloatCmp          16376      0.16%     68.02% # Class of committed instruction
system.cpu.commit.op_class_0::FloatCvt           6163      0.06%     68.08% # Class of committed instruction
system.cpu.commit.op_class_0::FloatMult         22517      0.22%     68.30% # Class of committed instruction
system.cpu.commit.op_class_0::FloatMultAcc        22517      0.22%     68.52% # Class of committed instruction
system.cpu.commit.op_class_0::FloatDiv             22      0.00%     68.52% # Class of committed instruction
system.cpu.commit.op_class_0::FloatMisc          2070      0.02%     68.54% # Class of committed instruction
system.cpu.commit.op_class_0::FloatSqrt             0      0.00%     68.54% # Class of committed instruction
system.cpu.commit.op_class_0::SimdAdd              32      0.00%     68.54% # Class of committed instruction
system.cpu.commit.op_class_0::SimdAddAcc            0      0.00%     68.54% # Class of committed instruction
system.cpu.commit.op_class_0::SimdAlu              37      0.00%     68.54% # Class of committed instruction
system.cpu.commit.op_class_0::SimdCmp              40      0.00%     68.54% # Class of committed instruction
system.cpu.commit.op_class_0::SimdCvt               0      0.00%     68.54% # Class of committed instruction
system.cpu.commit.op_class_0::SimdMisc           2082      0.02%     68.56% # Class of committed instruction
system.cpu.commit.op_class_0::SimdMult              0      0.00%     68.56% # Class of committed instruction
system.cpu.commit.op_class_0::SimdMultAcc            0      0.00%     68.56% # Class of committed instruction
system.cpu.commit.op_class_0::SimdShift             0      0.00%     68.56% # Class of committed instruction
system.cpu.commit.op_class_0::SimdShiftAcc            0      0.00%     68.56% # Class of committed instruction
system.cpu.commit.op_class_0::SimdDiv               0      0.00%     68.56% # Class of committed instruction
system.cpu.commit.op_class_0::SimdSqrt              0      0.00%     68.56% # Class of committed instruction
system.cpu.commit.op_class_0::SimdFloatAdd            0      0.00%     68.56% # Class of committed instruction
system.cpu.commit.op_class_0::SimdFloatAlu            0      0.00%     68.56% # Class of committed instruction
system.cpu.commit.op_class_0::SimdFloatCmp            0      0.00%     68.56% # Class of committed instruction
system.cpu.commit.op_class_0::SimdFloatCvt            0      0.00%     68.56% # Class of committed instruction
system.cpu.commit.op_class_0::SimdFloatDiv            0      0.00%     68.56% # Class of committed instruction
system.cpu.commit.op_class_0::SimdFloatMisc            0      0.00%     68.56% # Class of committed instruction
system.cpu.commit.op_class_0::SimdFloatMult            0      0.00%     68.56% # Class of committed instruction
system.cpu.commit.op_class_0::SimdFloatMultAcc            0      0.00%     68.56% # Class of committed instruction
system.cpu.commit.op_class_0::SimdFloatSqrt            0      0.00%     68.56% # Class of committed instruction
system.cpu.commit.op_class_0::SimdReduceAdd            0      0.00%     68.56% # Class of committed instruction
system.cpu.commit.op_class_0::SimdReduceAlu            0      0.00%     68.56% # Class of committed instruction
system.cpu.commit.op_class_0::SimdReduceCmp            0      0.00%     68.56% # Class of committed instruction
system.cpu.commit.op_class_0::SimdFloatReduceAdd            0      0.00%     68.56% # Class of committed instruction
system.cpu.commit.op_class_0::SimdFloatReduceCmp            0      0.00%     68.56% # Class of committed instruction
system.cpu.commit.op_class_0::SimdAes               0      0.00%     68.56% # Class of committed instruction
system.cpu.commit.op_class_0::SimdAesMix            0      0.00%     68.56% # Class of committed instruction
system.cpu.commit.op_class_0::SimdSha1Hash            0      0.00%     68.56% # Class of committed instruction
system.cpu.commit.op_class_0::SimdSha1Hash2            0      0.00%     68.56% # Class of committed instruction
system.cpu.commit.op_class_0::SimdSha256Hash            0      0.00%     68.56% # Class of committed instruction
system.cpu.commit.op_class_0::SimdSha256Hash2            0      0.00%     68.56% # Class of committed instruction
system.cpu.commit.op_class_0::SimdShaSigma2            0      0.00%     68.56% # Class of committed instruction
system.cpu.commit.op_class_0::SimdShaSigma3            0      0.00%     68.56% # Class of committed instruction
system.cpu.commit.op_class_0::SimdPredAlu            0      0.00%     68.56% # Class of committed instruction
system.cpu.commit.op_class_0::MemRead         2577573     25.37%     93.94% # Class of committed instruction
system.cpu.commit.op_class_0::MemWrite         616071      6.06%    100.00% # Class of committed instruction
system.cpu.commit.op_class_0::FloatMemRead            0      0.00%    100.00% # Class of committed instruction
system.cpu.commit.op_class_0::FloatMemWrite            0      0.00%    100.00% # Class of committed instruction
system.cpu.commit.op_class_0::IprAccess             0      0.00%    100.00% # Class of committed instruction
system.cpu.commit.op_class_0::InstPrefetch            0      0.00%    100.00% # Class of committed instruction
system.cpu.commit.op_class_0::total          10159447                       # Class of committed instruction
system.cpu.commit.refs                        3193644                       # Number of memory references committed
system.cpu.commit.swp_count                         0                       # Number of s/w prefetches committed
system.cpu.commit.vec_insts                    147983                       # Number of committed Vector instructions.
system.cpu.committedInsts                    10000002                       # Number of Instructions Simulated
system.cpu.committedOps                      10159353                       # Number of Ops (including micro ops) Simulated
system.cpu.cpi                               0.239598                       # CPI: Cycles Per Instruction
system.cpu.cpi_total                         0.239598                       # CPI: Total CPI of All Threads
system.cpu.decode.BlockedCycles                115538                       # Number of cycles decode is blocked
system.cpu.decode.BranchMispred                   360                       # Number of times decode detected a branch misprediction
system.cpu.decode.BranchResolved              1256157                       # Number of times decode resolved a branch
system.cpu.decode.DecodedInsts               10207562                       # Number of instructions handled by decode
system.cpu.decode.IdleCycles                   440866                       # Number of cycles decode is idle
system.cpu.decode.RunCycles                   1698444                       # Number of cycles decode is running
system.cpu.decode.SquashCycles                   1597                       # Number of cycles decode is squashing
system.cpu.decode.SquashedInsts                  1322                       # Number of squashed instructions handled by decode
system.cpu.decode.UnblockCycles                 61903                       # Number of cycles decode is unblocking
system.cpu.dtb.accesses                             0                       # DTB accesses
system.cpu.dtb.align_faults                         0                       # Number of TLB faults due to alignment restrictions
system.cpu.dtb.domain_faults                        0                       # Number of TLB faults due to domain restrictions
system.cpu.dtb.flush_entries                        0                       # Number of entries that have been flushed from TLB
system.cpu.dtb.flush_tlb                            0                       # Number of times complete TLB was flushed
system.cpu.dtb.flush_tlb_asid                       0                       # Number of times TLB was flushed by ASID
system.cpu.dtb.flush_tlb_mva                        0                       # Number of times TLB was flushed by MVA
system.cpu.dtb.flush_tlb_mva_asid                   0                       # Number of times TLB was flushed by MVA & ASID
system.cpu.dtb.hits                                 0                       # DTB hits
system.cpu.dtb.inst_accesses                        0                       # ITB inst accesses
system.cpu.dtb.inst_hits                            0                       # ITB inst hits
system.cpu.dtb.inst_misses                          0                       # ITB inst misses
system.cpu.dtb.misses                               0                       # DTB misses
system.cpu.dtb.perms_faults                         0                       # Number of TLB faults due to permissions restrictions
system.cpu.dtb.prefetch_faults                      0                       # Number of TLB faults due to prefetch
system.cpu.dtb.read_accesses                        0                       # DTB read accesses
system.cpu.dtb.read_hits                            0                       # DTB read hits
system.cpu.dtb.read_misses                          0                       # DTB read misses
system.cpu.dtb.stage2_mmu.stage2_tlb.accesses            0                       # DTB accesses
system.cpu.dtb.stage2_mmu.stage2_tlb.align_faults            0                       # Number of TLB faults due to alignment restrictions
system.cpu.dtb.stage2_mmu.stage2_tlb.domain_faults            0                       # Number of TLB faults due to domain restrictions
system.cpu.dtb.stage2_mmu.stage2_tlb.flush_entries            0                       # Number of entries that have been flushed from TLB
system.cpu.dtb.stage2_mmu.stage2_tlb.flush_tlb            0                       # Number of times complete TLB was flushed
system.cpu.dtb.stage2_mmu.stage2_tlb.flush_tlb_asid            0                       # Number of times TLB was flushed by ASID
system.cpu.dtb.stage2_mmu.stage2_tlb.flush_tlb_mva            0                       # Number of times TLB was flushed by MVA
system.cpu.dtb.stage2_mmu.stage2_tlb.flush_tlb_mva_asid            0                       # Number of times TLB was flushed by MVA & ASID
system.cpu.dtb.stage2_mmu.stage2_tlb.hits            0                       # DTB hits
system.cpu.dtb.stage2_mmu.stage2_tlb.inst_accesses            0                       # ITB inst accesses
system.cpu.dtb.stage2_mmu.stage2_tlb.inst_hits            0                       # ITB inst hits
system.cpu.dtb.stage2_mmu.stage2_tlb.inst_misses            0                       # ITB inst misses
system.cpu.dtb.stage2_mmu.stage2_tlb.misses            0                       # DTB misses
system.cpu.dtb.stage2_mmu.stage2_tlb.perms_faults            0                       # Number of TLB faults due to permissions restrictions
system.cpu.dtb.stage2_mmu.stage2_tlb.prefetch_faults            0                       # Number of TLB faults due to prefetch
system.cpu.dtb.stage2_mmu.stage2_tlb.read_accesses            0                       # DTB read accesses
system.cpu.dtb.stage2_mmu.stage2_tlb.read_hits            0                       # DTB read hits
system.cpu.dtb.stage2_mmu.stage2_tlb.read_misses            0                       # DTB read misses
system.cpu.dtb.stage2_mmu.stage2_tlb.walker.walkRequestOrigin_Requested::Data            0                       # Table walker requests started/completed, data/inst
system.cpu.dtb.stage2_mmu.stage2_tlb.walker.walkRequestOrigin_Requested::Inst            0                       # Table walker requests started/completed, data/inst
system.cpu.dtb.stage2_mmu.stage2_tlb.walker.walkRequestOrigin_Requested::total            0                       # Table walker requests started/completed, data/inst
system.cpu.dtb.stage2_mmu.stage2_tlb.walker.walkRequestOrigin_Completed::Data            0                       # Table walker requests started/completed, data/inst
system.cpu.dtb.stage2_mmu.stage2_tlb.walker.walkRequestOrigin_Completed::Inst            0                       # Table walker requests started/completed, data/inst
system.cpu.dtb.stage2_mmu.stage2_tlb.walker.walkRequestOrigin_Completed::total            0                       # Table walker requests started/completed, data/inst
system.cpu.dtb.stage2_mmu.stage2_tlb.walker.walkRequestOrigin::total            0                       # Table walker requests started/completed, data/inst
system.cpu.dtb.stage2_mmu.stage2_tlb.walker.walks            0                       # Table walker walks requested
system.cpu.dtb.stage2_mmu.stage2_tlb.write_accesses            0                       # DTB write accesses
system.cpu.dtb.stage2_mmu.stage2_tlb.write_hits            0                       # DTB write hits
system.cpu.dtb.stage2_mmu.stage2_tlb.write_misses            0                       # DTB write misses
system.cpu.dtb.walker.walkRequestOrigin_Requested::Data            0                       # Table walker requests started/completed, data/inst
system.cpu.dtb.walker.walkRequestOrigin_Requested::Inst            0                       # Table walker requests started/completed, data/inst
system.cpu.dtb.walker.walkRequestOrigin_Requested::total            0                       # Table walker requests started/completed, data/inst
system.cpu.dtb.walker.walkRequestOrigin_Completed::Data            0                       # Table walker requests started/completed, data/inst
system.cpu.dtb.walker.walkRequestOrigin_Completed::Inst            0                       # Table walker requests started/completed, data/inst
system.cpu.dtb.walker.walkRequestOrigin_Completed::total            0                       # Table walker requests started/completed, data/inst
system.cpu.dtb.walker.walkRequestOrigin::total            0                       # Table walker requests started/completed, data/inst
system.cpu.dtb.walker.walks                         0                       # Table walker walks requested
system.cpu.dtb.write_accesses                       0                       # DTB write accesses
system.cpu.dtb.write_hits                           0                       # DTB write hits
system.cpu.dtb.write_misses                         0                       # DTB write misses
system.cpu.fetch.Branches                     1935551                       # Number of branches that fetch encountered
system.cpu.fetch.CacheLines                    306561                       # Number of cache lines fetched
system.cpu.fetch.Cycles                       1896198                       # Number of cycles fetch has run and was not squashing or blocked
system.cpu.fetch.IcacheSquashes                  1096                       # Number of outstanding Icache misses that were squashed
system.cpu.fetch.IcacheWaitRetryStallCycles           51                       # Number of stall cycles due to full MSHR
system.cpu.fetch.Insts                       10059907                       # Number of instructions fetch has processed
system.cpu.fetch.MiscStallCycles                    4                       # Number of cycles fetch has spent waiting on interrupts, or bad addresses, or out of MSHRs
system.cpu.fetch.SquashCycles                    3910                       # Number of cycles fetch has spent squashing
system.cpu.fetch.branchRate                  0.807831                       # Number of branch fetches per cycle
system.cpu.fetch.icacheStallCycles             420140                       # Number of cycles fetch is stalled on an Icache miss
system.cpu.fetch.predictedBranches            1268425                       # Number of branches that fetch has predicted taken
system.cpu.fetch.rate                        4.198654                       # Number of inst fetches per cycle
system.cpu.fetch.rateDist::samples            2318348                       # Number of instructions fetched each cycle (Total)
system.cpu.fetch.rateDist::mean              4.409041                       # Number of instructions fetched each cycle (Total)
system.cpu.fetch.rateDist::stdev             3.427074                       # Number of instructions fetched each cycle (Total)
system.cpu.fetch.rateDist::underflows               0      0.00%      0.00% # Number of instructions fetched each cycle (Total)
system.cpu.fetch.rateDist::0                   538683     23.24%     23.24% # Number of instructions fetched each cycle (Total)
system.cpu.fetch.rateDist::1                   251969     10.87%     34.10% # Number of instructions fetched each cycle (Total)
system.cpu.fetch.rateDist::2                   178108      7.68%     41.79% # Number of instructions fetched each cycle (Total)
system.cpu.fetch.rateDist::3                    73600      3.17%     44.96% # Number of instructions fetched each cycle (Total)
system.cpu.fetch.rateDist::4                    48187      2.08%     47.04% # Number of instructions fetched each cycle (Total)
system.cpu.fetch.rateDist::5                    83507      3.60%     50.64% # Number of instructions fetched each cycle (Total)
system.cpu.fetch.rateDist::6                    77553      3.35%     53.99% # Number of instructions fetched each cycle (Total)
system.cpu.fetch.rateDist::7                   216823      9.35%     63.34% # Number of instructions fetched each cycle (Total)
system.cpu.fetch.rateDist::8                   849918     36.66%    100.00% # Number of instructions fetched each cycle (Total)
system.cpu.fetch.rateDist::overflows                0      0.00%    100.00% # Number of instructions fetched each cycle (Total)
system.cpu.fetch.rateDist::min_value                0                       # Number of instructions fetched each cycle (Total)
system.cpu.fetch.rateDist::max_value                8                       # Number of instructions fetched each cycle (Total)
system.cpu.fetch.rateDist::total              2318348                       # Number of instructions fetched each cycle (Total)
system.cpu.idleCycles                           77636                       # Total number of cycles that the CPU has spent unscheduled due to idling
system.cpu.iew.branchMispredicts                 2346                       # Number of branch mispredicts detected at execute
system.cpu.iew.exec_branches                  1925504                       # Number of branches executed
system.cpu.iew.exec_nop                           119                       # number of nop insts executed
system.cpu.iew.exec_rate                     4.254897                       # Inst execution rate
system.cpu.iew.exec_refs                      3216664                       # number of memory reference insts executed
system.cpu.iew.exec_stores                     617147                       # Number of stores executed
system.cpu.iew.exec_swp                             0                       # number of swp insts executed
system.cpu.iew.iewBlockCycles                    3915                       # Number of cycles IEW is blocking
system.cpu.iew.iewDispLoadInsts               2585145                       # Number of dispatched load instructions
system.cpu.iew.iewDispNonSpecInsts                 66                       # Number of dispatched non-speculative instructions
system.cpu.iew.iewDispSquashedInsts               274                       # Number of squashed instructions skipped by dispatch
system.cpu.iew.iewDispStoreInsts               618729                       # Number of dispatched store instructions
system.cpu.iew.iewDispatchedInsts            10193051                       # Number of instructions dispatched to IQ
system.cpu.iew.iewExecLoadInsts               2599517                       # Number of load instructions executed
system.cpu.iew.iewExecSquashedInsts              1825                       # Number of squashed instructions skipped in execute
system.cpu.iew.iewExecutedInsts              10194664                       # Number of executed instructions
system.cpu.iew.iewIQFullEvents                     12                       # Number of times the IQ has become full, causing a stall
system.cpu.iew.iewIdleCycles                        0                       # Number of cycles IEW is idle
system.cpu.iew.iewLSQFullEvents                  1692                       # Number of times the LSQ has become full, causing a stall
system.cpu.iew.iewSquashCycles                   1597                       # Number of cycles IEW is squashing
system.cpu.iew.iewUnblockCycles                  1707                       # Number of cycles IEW is unblocking
system.cpu.iew.lsq.thread0.blockedLoads             0                       # Number of blocked loads due to partial load-store forwarding
system.cpu.iew.lsq.thread0.cacheBlocked           525                       # Number of times an access to memory failed due to the cache being blocked
system.cpu.iew.lsq.thread0.forwLoads              499                       # Number of loads that had data forwarded from stores
system.cpu.iew.lsq.thread0.ignoredResponses            0                       # Number of memory responses ignored because the instruction is squashed
system.cpu.iew.lsq.thread0.invAddrLoads             0                       # Number of loads ignored due to an invalid address
system.cpu.iew.lsq.thread0.invAddrSwpfs             0                       # Number of software prefetches ignored due to an invalid address
system.cpu.iew.lsq.thread0.memOrderViolation           25                       # Number of memory ordering violations
system.cpu.iew.lsq.thread0.rescheduledLoads        16946                       # Number of loads that were rescheduled
system.cpu.iew.lsq.thread0.squashedLoads         7563                       # Number of loads squashed
system.cpu.iew.lsq.thread0.squashedStores         2656                       # Number of stores squashed
system.cpu.iew.memOrderViolationEvents             25                       # Number of memory order violations
system.cpu.iew.predictedNotTakenIncorrect         1612                       # Number of branches that were predicted not taken incorrectly
system.cpu.iew.predictedTakenIncorrect            734                       # Number of branches that were predicted taken incorrectly
system.cpu.iew.wb_consumers                  12960851                       # num instructions consuming a value
system.cpu.iew.wb_count                      10174701                       # cumulative count of insts written-back
system.cpu.iew.wb_fanout                     0.559185                       # average fanout of values written-back
system.cpu.iew.wb_producers                   7247514                       # num instructions producing a value
system.cpu.iew.wb_rate                       4.246565                       # insts written-back per cycle
system.cpu.iew.wb_sent                       10176086                       # cumulative count of insts sent to commit
system.cpu.int_regfile_reads                 12567281                       # number of integer regfile reads
system.cpu.int_regfile_writes                 7565235                       # number of integer regfile writes
system.cpu.ipc                               4.173651                       # IPC: Instructions Per Cycle
system.cpu.ipc_total                         4.173651                       # IPC: Total IPC of All Threads
system.cpu.iq.FU_type_0::No_OpClass                11      0.00%      0.00% # Type of FU issued
system.cpu.iq.FU_type_0::IntAlu               6896556     67.64%     67.64% # Type of FU issued
system.cpu.iq.FU_type_0::IntMult                 6247      0.06%     67.70% # Type of FU issued
system.cpu.iq.FU_type_0::IntDiv                    17      0.00%     67.70% # Type of FU issued
system.cpu.iq.FU_type_0::FloatAdd                4094      0.04%     67.74% # Type of FU issued
system.cpu.iq.FU_type_0::FloatCmp               16376      0.16%     67.90% # Type of FU issued
system.cpu.iq.FU_type_0::FloatCvt                6163      0.06%     67.96% # Type of FU issued
system.cpu.iq.FU_type_0::FloatMult              22519      0.22%     68.18% # Type of FU issued
system.cpu.iq.FU_type_0::FloatMultAcc           22519      0.22%     68.40% # Type of FU issued
system.cpu.iq.FU_type_0::FloatDiv                  22      0.00%     68.40% # Type of FU issued
system.cpu.iq.FU_type_0::FloatMisc               2071      0.02%     68.42% # Type of FU issued
system.cpu.iq.FU_type_0::FloatSqrt                  0      0.00%     68.42% # Type of FU issued
system.cpu.iq.FU_type_0::SimdAdd                   38      0.00%     68.42% # Type of FU issued
system.cpu.iq.FU_type_0::SimdAddAcc                 0      0.00%     68.42% # Type of FU issued
system.cpu.iq.FU_type_0::SimdAlu                   41      0.00%     68.42% # Type of FU issued
system.cpu.iq.FU_type_0::SimdCmp                   44      0.00%     68.42% # Type of FU issued
system.cpu.iq.FU_type_0::SimdCvt                    0      0.00%     68.42% # Type of FU issued
system.cpu.iq.FU_type_0::SimdMisc                2086      0.02%     68.44% # Type of FU issued
system.cpu.iq.FU_type_0::SimdMult                   0      0.00%     68.44% # Type of FU issued
system.cpu.iq.FU_type_0::SimdMultAcc                0      0.00%     68.44% # Type of FU issued
system.cpu.iq.FU_type_0::SimdShift                  0      0.00%     68.44% # Type of FU issued
system.cpu.iq.FU_type_0::SimdShiftAcc               0      0.00%     68.44% # Type of FU issued
system.cpu.iq.FU_type_0::SimdDiv                    0      0.00%     68.44% # Type of FU issued
system.cpu.iq.FU_type_0::SimdSqrt                   0      0.00%     68.44% # Type of FU issued
system.cpu.iq.FU_type_0::SimdFloatAdd               0      0.00%     68.44% # Type of FU issued
system.cpu.iq.FU_type_0::SimdFloatAlu               0      0.00%     68.44% # Type of FU issued
system.cpu.iq.FU_type_0::SimdFloatCmp               0      0.00%     68.44% # Type of FU issued
system.cpu.iq.FU_type_0::SimdFloatCvt               0      0.00%     68.44% # Type of FU issued
system.cpu.iq.FU_type_0::SimdFloatDiv               0      0.00%     68.44% # Type of FU issued
system.cpu.iq.FU_type_0::SimdFloatMisc              0      0.00%     68.44% # Type of FU issued
system.cpu.iq.FU_type_0::SimdFloatMult              0      0.00%     68.44% # Type of FU issued
system.cpu.iq.FU_type_0::SimdFloatMultAcc            0      0.00%     68.44% # Type of FU issued
system.cpu.iq.FU_type_0::SimdFloatSqrt              0      0.00%     68.44% # Type of FU issued
system.cpu.iq.FU_type_0::SimdReduceAdd              0      0.00%     68.44% # Type of FU issued
system.cpu.iq.FU_type_0::SimdReduceAlu              0      0.00%     68.44% # Type of FU issued
system.cpu.iq.FU_type_0::SimdReduceCmp              0      0.00%     68.44% # Type of FU issued
system.cpu.iq.FU_type_0::SimdFloatReduceAdd            0      0.00%     68.44% # Type of FU issued
system.cpu.iq.FU_type_0::SimdFloatReduceCmp            0      0.00%     68.44% # Type of FU issued
system.cpu.iq.FU_type_0::SimdAes                    0      0.00%     68.44% # Type of FU issued
system.cpu.iq.FU_type_0::SimdAesMix                 0      0.00%     68.44% # Type of FU issued
system.cpu.iq.FU_type_0::SimdSha1Hash               0      0.00%     68.44% # Type of FU issued
system.cpu.iq.FU_type_0::SimdSha1Hash2              0      0.00%     68.44% # Type of FU issued
system.cpu.iq.FU_type_0::SimdSha256Hash             0      0.00%     68.44% # Type of FU issued
system.cpu.iq.FU_type_0::SimdSha256Hash2            0      0.00%     68.44% # Type of FU issued
system.cpu.iq.FU_type_0::SimdShaSigma2              0      0.00%     68.44% # Type of FU issued
system.cpu.iq.FU_type_0::SimdShaSigma3              0      0.00%     68.44% # Type of FU issued
system.cpu.iq.FU_type_0::SimdPredAlu                0      0.00%     68.44% # Type of FU issued
system.cpu.iq.FU_type_0::MemRead              2600251     25.50%     93.94% # Type of FU issued
system.cpu.iq.FU_type_0::MemWrite              617436      6.06%    100.00% # Type of FU issued
system.cpu.iq.FU_type_0::FloatMemRead               0      0.00%    100.00% # Type of FU issued
system.cpu.iq.FU_type_0::FloatMemWrite              0      0.00%    100.00% # Type of FU issued
system.cpu.iq.FU_type_0::IprAccess                  0      0.00%    100.00% # Type of FU issued
system.cpu.iq.FU_type_0::InstPrefetch               0      0.00%    100.00% # Type of FU issued
system.cpu.iq.FU_type_0::total               10196491                       # Type of FU issued
system.cpu.iq.fp_alu_accesses                       0                       # Number of floating point alu accesses
system.cpu.iq.fp_inst_queue_reads                   0                       # Number of floating instruction queue reads
system.cpu.iq.fp_inst_queue_wakeup_accesses            0                       # Number of floating instruction queue wakeup accesses
system.cpu.iq.fp_inst_queue_writes                  0                       # Number of floating instruction queue writes
system.cpu.iq.fu_busy_cnt                       98124                       # FU busy when requested
system.cpu.iq.fu_busy_rate                   0.009623                       # FU busy rate (busy events/executed inst)
system.cpu.iq.fu_full::No_OpClass                   0      0.00%      0.00% # attempts to use FU when none available
system.cpu.iq.fu_full::IntAlu                   62079     63.27%     63.27% # attempts to use FU when none available
system.cpu.iq.fu_full::IntMult                      0      0.00%     63.27% # attempts to use FU when none available
system.cpu.iq.fu_full::IntDiv                       0      0.00%     63.27% # attempts to use FU when none available
system.cpu.iq.fu_full::FloatAdd                     0      0.00%     63.27% # attempts to use FU when none available
system.cpu.iq.fu_full::FloatCmp                     0      0.00%     63.27% # attempts to use FU when none available
system.cpu.iq.fu_full::FloatCvt                     0      0.00%     63.27% # attempts to use FU when none available
system.cpu.iq.fu_full::FloatMult                  335      0.34%     63.61% # attempts to use FU when none available
system.cpu.iq.fu_full::FloatMultAcc                10      0.01%     63.62% # attempts to use FU when none available
system.cpu.iq.fu_full::FloatDiv                     0      0.00%     63.62% # attempts to use FU when none available
system.cpu.iq.fu_full::FloatMisc                    3      0.00%     63.62% # attempts to use FU when none available
system.cpu.iq.fu_full::FloatSqrt                    0      0.00%     63.62% # attempts to use FU when none available
system.cpu.iq.fu_full::SimdAdd                      0      0.00%     63.62% # attempts to use FU when none available
system.cpu.iq.fu_full::SimdAddAcc                   0      0.00%     63.62% # attempts to use FU when none available
system.cpu.iq.fu_full::SimdAlu                      2      0.00%     63.62% # attempts to use FU when none available
system.cpu.iq.fu_full::SimdCmp                      2      0.00%     63.62% # attempts to use FU when none available
system.cpu.iq.fu_full::SimdCvt                      0      0.00%     63.62% # attempts to use FU when none available
system.cpu.iq.fu_full::SimdMisc                     0      0.00%     63.62% # attempts to use FU when none available
system.cpu.iq.fu_full::SimdMult                     0      0.00%     63.62% # attempts to use FU when none available
system.cpu.iq.fu_full::SimdMultAcc                  0      0.00%     63.62% # attempts to use FU when none available
system.cpu.iq.fu_full::SimdShift                    0      0.00%     63.62% # attempts to use FU when none available
system.cpu.iq.fu_full::SimdShiftAcc                 0      0.00%     63.62% # attempts to use FU when none available
system.cpu.iq.fu_full::SimdDiv                      0      0.00%     63.62% # attempts to use FU when none available
system.cpu.iq.fu_full::SimdSqrt                     0      0.00%     63.62% # attempts to use FU when none available
system.cpu.iq.fu_full::SimdFloatAdd                 0      0.00%     63.62% # attempts to use FU when none available
system.cpu.iq.fu_full::SimdFloatAlu                 0      0.00%     63.62% # attempts to use FU when none available
system.cpu.iq.fu_full::SimdFloatCmp                 0      0.00%     63.62% # attempts to use FU when none available
system.cpu.iq.fu_full::SimdFloatCvt                 0      0.00%     63.62% # attempts to use FU when none available
system.cpu.iq.fu_full::SimdFloatDiv                 0      0.00%     63.62% # attempts to use FU when none available
system.cpu.iq.fu_full::SimdFloatMisc                0      0.00%     63.62% # attempts to use FU when none available
system.cpu.iq.fu_full::SimdFloatMult                0      0.00%     63.62% # attempts to use FU when none available
system.cpu.iq.fu_full::SimdFloatMultAcc             0      0.00%     63.62% # attempts to use FU when none available
system.cpu.iq.fu_full::SimdFloatSqrt                0      0.00%     63.62% # attempts to use FU when none available
system.cpu.iq.fu_full::SimdReduceAdd                0      0.00%     63.62% # attempts to use FU when none available
system.cpu.iq.fu_full::SimdReduceAlu                0      0.00%     63.62% # attempts to use FU when none available
system.cpu.iq.fu_full::SimdReduceCmp                0      0.00%     63.62% # attempts to use FU when none available
system.cpu.iq.fu_full::SimdFloatReduceAdd            0      0.00%     63.62% # attempts to use FU when none available
system.cpu.iq.fu_full::SimdFloatReduceCmp            0      0.00%     63.62% # attempts to use FU when none available
system.cpu.iq.fu_full::SimdAes                      0      0.00%     63.62% # attempts to use FU when none available
system.cpu.iq.fu_full::SimdAesMix                   0      0.00%     63.62% # attempts to use FU when none available
system.cpu.iq.fu_full::SimdSha1Hash                 0      0.00%     63.62% # attempts to use FU when none available
system.cpu.iq.fu_full::SimdSha1Hash2                0      0.00%     63.62% # attempts to use FU when none available
system.cpu.iq.fu_full::SimdSha256Hash               0      0.00%     63.62% # attempts to use FU when none available
system.cpu.iq.fu_full::SimdSha256Hash2              0      0.00%     63.62% # attempts to use FU when none available
system.cpu.iq.fu_full::SimdShaSigma2                0      0.00%     63.62% # attempts to use FU when none available
system.cpu.iq.fu_full::SimdShaSigma3                0      0.00%     63.62% # attempts to use FU when none available
system.cpu.iq.fu_full::SimdPredAlu                  0      0.00%     63.62% # attempts to use FU when none available
system.cpu.iq.fu_full::MemRead                  18093     18.44%     82.06% # attempts to use FU when none available
system.cpu.iq.fu_full::MemWrite                 17600     17.94%    100.00% # attempts to use FU when none available
system.cpu.iq.fu_full::FloatMemRead                 0      0.00%    100.00% # attempts to use FU when none available
system.cpu.iq.fu_full::FloatMemWrite                0      0.00%    100.00% # attempts to use FU when none available
system.cpu.iq.fu_full::IprAccess                    0      0.00%    100.00% # attempts to use FU when none available
system.cpu.iq.fu_full::InstPrefetch                 0      0.00%    100.00% # attempts to use FU when none available
system.cpu.iq.int_alu_accesses               10137161                       # Number of integer alu accesses
system.cpu.iq.int_inst_queue_reads           22503688                       # Number of integer instruction queue reads
system.cpu.iq.int_inst_queue_wakeup_accesses     10026560                       # Number of integer instruction queue wakeup accesses
system.cpu.iq.int_inst_queue_writes          10076918                       # Number of integer instruction queue writes
system.cpu.iq.iqInstsAdded                   10192866                       # Number of instructions added to the IQ (excludes non-spec)
system.cpu.iq.iqInstsIssued                  10196491                       # Number of instructions issued
system.cpu.iq.iqNonSpecInstsAdded                  66                       # Number of non-speculative instructions added to the IQ
system.cpu.iq.iqSquashedInstsExamined           33543                       # Number of squashed instructions iterated over during squash; mainly for profiling
system.cpu.iq.iqSquashedInstsIssued               194                       # Number of squashed instructions issued
system.cpu.iq.iqSquashedNonSpecRemoved             10                       # Number of squashed non-spec instructions that were removed
system.cpu.iq.iqSquashedOperandsExamined        34188                       # Number of squashed operands that are examined and possibly removed from graph
system.cpu.iq.issued_per_cycle::samples       2318348                       # Number of insts issued each cycle
system.cpu.iq.issued_per_cycle::mean         4.398171                       # Number of insts issued each cycle
system.cpu.iq.issued_per_cycle::stdev        2.296702                       # Number of insts issued each cycle
system.cpu.iq.issued_per_cycle::underflows            0      0.00%      0.00% # Number of insts issued each cycle
system.cpu.iq.issued_per_cycle::0              177574      7.66%      7.66% # Number of insts issued each cycle
system.cpu.iq.issued_per_cycle::1               75703      3.27%     10.92% # Number of insts issued each cycle
system.cpu.iq.issued_per_cycle::2              261512     11.28%     22.20% # Number of insts issued each cycle
system.cpu.iq.issued_per_cycle::3              451330     19.47%     41.67% # Number of insts issued each cycle
system.cpu.iq.issued_per_cycle::4              122686      5.29%     46.96% # Number of insts issued each cycle
system.cpu.iq.issued_per_cycle::5              264987     11.43%     58.39% # Number of insts issued each cycle
system.cpu.iq.issued_per_cycle::6              448580     19.35%     77.74% # Number of insts issued each cycle
system.cpu.iq.issued_per_cycle::7              391193     16.87%     94.62% # Number of insts issued each cycle
system.cpu.iq.issued_per_cycle::8              124783      5.38%    100.00% # Number of insts issued each cycle
system.cpu.iq.issued_per_cycle::overflows            0      0.00%    100.00% # Number of insts issued each cycle
system.cpu.iq.issued_per_cycle::min_value            0                       # Number of insts issued each cycle
system.cpu.iq.issued_per_cycle::max_value            8                       # Number of insts issued each cycle
system.cpu.iq.issued_per_cycle::total         2318348                       # Number of insts issued each cycle
system.cpu.iq.rate                           4.255659                       # Inst issue rate
system.cpu.iq.vec_alu_accesses                 157443                       # Number of vector alu accesses
system.cpu.iq.vec_inst_queue_reads             305958                       # Number of vector instruction queue reads
system.cpu.iq.vec_inst_queue_wakeup_accesses       148141                       # Number of vector instruction queue wakeup accesses
system.cpu.iq.vec_inst_queue_writes            149581                       # Number of vector instruction queue writes
system.cpu.itb.accesses                             0                       # DTB accesses
system.cpu.itb.align_faults                         0                       # Number of TLB faults due to alignment restrictions
system.cpu.itb.domain_faults                        0                       # Number of TLB faults due to domain restrictions
system.cpu.itb.flush_entries                        0                       # Number of entries that have been flushed from TLB
system.cpu.itb.flush_tlb                            0                       # Number of times complete TLB was flushed
system.cpu.itb.flush_tlb_asid                       0                       # Number of times TLB was flushed by ASID
system.cpu.itb.flush_tlb_mva                        0                       # Number of times TLB was flushed by MVA
system.cpu.itb.flush_tlb_mva_asid                   0                       # Number of times TLB was flushed by MVA & ASID
system.cpu.itb.hits                                 0                       # DTB hits
system.cpu.itb.inst_accesses                        0                       # ITB inst accesses
system.cpu.itb.inst_hits                            0                       # ITB inst hits
system.cpu.itb.inst_misses                          0                       # ITB inst misses
system.cpu.itb.misses                               0                       # DTB misses
system.cpu.itb.perms_faults                         0                       # Number of TLB faults due to permissions restrictions
system.cpu.itb.prefetch_faults                      0                       # Number of TLB faults due to prefetch
system.cpu.itb.read_accesses                        0                       # DTB read accesses
system.cpu.itb.read_hits                            0                       # DTB read hits
system.cpu.itb.read_misses                          0                       # DTB read misses
system.cpu.itb.stage2_mmu.stage2_tlb.accesses            0                       # DTB accesses
system.cpu.itb.stage2_mmu.stage2_tlb.align_faults            0                       # Number of TLB faults due to alignment restrictions
system.cpu.itb.stage2_mmu.stage2_tlb.domain_faults            0                       # Number of TLB faults due to domain restrictions
system.cpu.itb.stage2_mmu.stage2_tlb.flush_entries            0                       # Number of entries that have been flushed from TLB
system.cpu.itb.stage2_mmu.stage2_tlb.flush_tlb            0                       # Number of times complete TLB was flushed
system.cpu.itb.stage2_mmu.stage2_tlb.flush_tlb_asid            0                       # Number of times TLB was flushed by ASID
system.cpu.itb.stage2_mmu.stage2_tlb.flush_tlb_mva            0                       # Number of times TLB was flushed by MVA
system.cpu.itb.stage2_mmu.stage2_tlb.flush_tlb_mva_asid            0                       # Number of times TLB was flushed by MVA & ASID
system.cpu.itb.stage2_mmu.stage2_tlb.hits            0                       # DTB hits
system.cpu.itb.stage2_mmu.stage2_tlb.inst_accesses            0                       # ITB inst accesses
system.cpu.itb.stage2_mmu.stage2_tlb.inst_hits            0                       # ITB inst hits
system.cpu.itb.stage2_mmu.stage2_tlb.inst_misses            0                       # ITB inst misses
system.cpu.itb.stage2_mmu.stage2_tlb.misses            0                       # DTB misses
system.cpu.itb.stage2_mmu.stage2_tlb.perms_faults            0                       # Number of TLB faults due to permissions restrictions
system.cpu.itb.stage2_mmu.stage2_tlb.prefetch_faults            0                       # Number of TLB faults due to prefetch
system.cpu.itb.stage2_mmu.stage2_tlb.read_accesses            0                       # DTB read accesses
system.cpu.itb.stage2_mmu.stage2_tlb.read_hits            0                       # DTB read hits
system.cpu.itb.stage2_mmu.stage2_tlb.read_misses            0                       # DTB read misses
system.cpu.itb.stage2_mmu.stage2_tlb.walker.walkRequestOrigin_Requested::Data            0                       # Table walker requests started/completed, data/inst
system.cpu.itb.stage2_mmu.stage2_tlb.walker.walkRequestOrigin_Requested::Inst            0                       # Table walker requests started/completed, data/inst
system.cpu.itb.stage2_mmu.stage2_tlb.walker.walkRequestOrigin_Requested::total            0                       # Table walker requests started/completed, data/inst
system.cpu.itb.stage2_mmu.stage2_tlb.walker.walkRequestOrigin_Completed::Data            0                       # Table walker requests started/completed, data/inst
system.cpu.itb.stage2_mmu.stage2_tlb.walker.walkRequestOrigin_Completed::Inst            0                       # Table walker requests started/completed, data/inst
system.cpu.itb.stage2_mmu.stage2_tlb.walker.walkRequestOrigin_Completed::total            0                       # Table walker requests started/completed, data/inst
system.cpu.itb.stage2_mmu.stage2_tlb.walker.walkRequestOrigin::total            0                       # Table walker requests started/completed, data/inst
system.cpu.itb.stage2_mmu.stage2_tlb.walker.walks            0                       # Table walker walks requested
system.cpu.itb.stage2_mmu.stage2_tlb.write_accesses            0                       # DTB write accesses
system.cpu.itb.stage2_mmu.stage2_tlb.write_hits            0                       # DTB write hits
system.cpu.itb.stage2_mmu.stage2_tlb.write_misses            0                       # DTB write misses
system.cpu.itb.walker.walkRequestOrigin_Requested::Data            0                       # Table walker requests started/completed, data/inst
system.cpu.itb.walker.walkRequestOrigin_Requested::Inst            0                       # Table walker requests started/completed, data/inst
system.cpu.itb.walker.walkRequestOrigin_Requested::total            0                       # Table walker requests started/completed, data/inst
system.cpu.itb.walker.walkRequestOrigin_Completed::Data            0                       # Table walker requests started/completed, data/inst
system.cpu.itb.walker.walkRequestOrigin_Completed::Inst            0                       # Table walker requests started/completed, data/inst
system.cpu.itb.walker.walkRequestOrigin_Completed::total            0                       # Table walker requests started/completed, data/inst
system.cpu.itb.walker.walkRequestOrigin::total            0                       # Table walker requests started/completed, data/inst
system.cpu.itb.walker.walks                         0                       # Table walker walks requested
system.cpu.itb.write_accesses                       0                       # DTB write accesses
system.cpu.itb.write_hits                           0                       # DTB write hits
system.cpu.itb.write_misses                         0                       # DTB write misses
system.cpu.memDep0.conflictingLoads              2963                       # Number of conflicting loads.
system.cpu.memDep0.conflictingStores             2063                       # Number of conflicting stores.
system.cpu.memDep0.insertedLoads              2585145                       # Number of loads inserted to the mem dependence unit.
system.cpu.memDep0.insertedStores              618729                       # Number of stores inserted to the mem dependence unit.
system.cpu.misc_regfile_reads                 6426338                       # number of misc regfile reads
system.cpu.misc_regfile_writes                  71882                       # number of misc regfile writes
system.cpu.numCycles                          2395984                       # number of cpu cycles simulated
system.cpu.numWorkItemsCompleted                    0                       # number of work items this cpu completed
system.cpu.numWorkItemsStarted                      0                       # number of work items this cpu started
system.cpu.rename.BlockCycles                    5640                       # Number of cycles rename is blocking
system.cpu.rename.CommittedMaps              13290416                       # Number of HB maps that are committed
system.cpu.rename.IQFullEvents                  28833                       # Number of times rename has blocked due to IQ full
system.cpu.rename.IdleCycles                   472378                       # Number of cycles rename is idle
system.cpu.rename.LQFullEvents                  15062                       # Number of times rename has blocked due to LQ full
system.cpu.rename.RenameLookups              18739141                       # Number of register rename lookups that rename has made
system.cpu.rename.RenamedInsts               10202226                       # Number of instructions processed by rename
system.cpu.rename.RenamedOperands            13343792                       # Number of destination operands rename has renamed
system.cpu.rename.RunCycles                   1728604                       # Number of cycles rename is running
system.cpu.rename.SQFullEvents                  31250                       # Number of times rename has blocked due to SQ full
system.cpu.rename.SquashCycles                   1597                       # Number of cycles rename is squashing
system.cpu.rename.UnblockCycles                105401                       # Number of cycles rename is unblocking
system.cpu.rename.UndoneMaps                    53310                       # Number of HB maps that are undone due to squashing
system.cpu.rename.int_rename_lookups         12579801                       # Number of integer rename lookups
system.cpu.rename.serializeStallCycles           4728                       # count of cycles rename stalled for serializing inst
system.cpu.rename.serializingInsts                243                       # count of serializing insts renamed
system.cpu.rename.skidInsts                    308577                       # count of insts added to the skid buffer
system.cpu.rename.tempSerializingInsts             65                       # count of temporary serializing insts renamed
system.cpu.rename.vec_rename_lookups           210402                       # Number of vector rename lookups
system.cpu.rob.rob_reads                     11696929                       # The number of ROB reads
system.cpu.rob.rob_writes                    20391041                       # The number of ROB writes
system.cpu.timesIdled                            4303                       # Number of times that the entire CPU went into an idle state and unscheduled itself
system.cpu.vec_regfile_reads                   209622                       # number of vector regfile reads
system.cpu.vec_regfile_writes                   96651                       # number of vector regfile writes
system.cpu.workload.numSyscalls                     7                       # Number of system calls
system.membus.snoop_filter.hit_multi_requests            0                       # Number of requests hitting in the snoop filter with multiple (>1) holders of the requested data.
system.membus.snoop_filter.hit_multi_snoops            0                       # Number of snoops hitting in the snoop filter with multiple (>1) holders of the requested data.
system.membus.snoop_filter.hit_single_requests            0                       # Number of requests hitting in the snoop filter with a single holder of the requested data.
system.membus.snoop_filter.hit_single_snoops            0                       # Number of snoops hitting in the snoop filter with a single holder of the requested data.
system.membus.snoop_filter.tot_requests          1934                       # Total number of requests made to the snoop filter.
system.membus.snoop_filter.tot_snoops               0                       # Total number of snoops made to the snoop filter.
system.tol2bus.snoop_filter.hit_multi_requests            1                       # Number of requests hitting in the snoop filter with multiple (>1) holders of the requested data.
system.tol2bus.snoop_filter.hit_multi_snoops            0                       # Number of snoops hitting in the snoop filter with multiple (>1) holders of the requested data.
system.tol2bus.snoop_filter.hit_single_requests         9346                       # Number of requests hitting in the snoop filter with a single holder of the requested data.
system.tol2bus.snoop_filter.hit_single_snoops            0                       # Number of snoops hitting in the snoop filter with a single holder of the requested data.
system.tol2bus.snoop_filter.tot_requests        19728                       # Total number of requests made to the snoop filter.
system.tol2bus.snoop_filter.tot_snoops              0                       # Total number of snoops made to the snoop filter.
system.membus.trans_dist::ReadResp                690                       # Transaction distribution
system.membus.trans_dist::ReadExReq               698                       # Transaction distribution
system.membus.trans_dist::ReadExResp              698                       # Transaction distribution
system.membus.trans_dist::ReadSharedReq           690                       # Transaction distribution
system.membus.trans_dist::InvalidateReq           546                       # Transaction distribution
system.membus.pkt_count_system.l2.mem_side::system.mem_ctrls.port         3322                       # Packet count per connected master and slave (bytes)
system.membus.pkt_count::total                   3322                       # Packet count per connected master and slave (bytes)
system.membus.pkt_size_system.l2.mem_side::system.mem_ctrls.port        88832                       # Cumulative packet size per connected master and slave (bytes)
system.membus.pkt_size::total                   88832                       # Cumulative packet size per connected master and slave (bytes)
system.membus.snoops                                0                       # Total snoops (count)
system.membus.snoopTraffic                          0                       # Total snoop traffic (bytes)
system.membus.snoop_fanout::samples              1934                       # Request fanout histogram
system.membus.snoop_fanout::mean                    0                       # Request fanout histogram
system.membus.snoop_fanout::stdev                   0                       # Request fanout histogram
system.membus.snoop_fanout::underflows              0      0.00%      0.00% # Request fanout histogram
system.membus.snoop_fanout::0                    1934    100.00%    100.00% # Request fanout histogram
system.membus.snoop_fanout::1                       0      0.00%    100.00% # Request fanout histogram
system.membus.snoop_fanout::overflows               0      0.00%    100.00% # Request fanout histogram
system.membus.snoop_fanout::min_value               0                       # Request fanout histogram
system.membus.snoop_fanout::max_value               0                       # Request fanout histogram
system.membus.snoop_fanout::total                1934                       # Request fanout histogram
system.membus.reqLayer0.occupancy             2236500                       # Layer occupancy (ticks)
system.membus.reqLayer0.utilization               0.2                       # Layer utilization (%)
system.membus.respLayer1.occupancy            7327000                       # Layer occupancy (ticks)
system.membus.respLayer1.utilization              0.6                       # Layer utilization (%)
system.membus.power_state.pwrStateResidencyTicks::UNDEFINED   1197991500                       # Cumulative time (in ticks) in various power states
system.tol2bus.trans_dist::ReadResp              8930                       # Transaction distribution
system.tol2bus.trans_dist::WritebackDirty         3536                       # Transaction distribution
system.tol2bus.trans_dist::WritebackClean         5724                       # Transaction distribution
system.tol2bus.trans_dist::CleanEvict              86                       # Transaction distribution
system.tol2bus.trans_dist::ReadExReq              906                       # Transaction distribution
system.tol2bus.trans_dist::ReadExResp             906                       # Transaction distribution
system.tol2bus.trans_dist::ReadCleanReq          5740                       # Transaction distribution
system.tol2bus.trans_dist::ReadSharedReq         3190                       # Transaction distribution
system.tol2bus.trans_dist::InvalidateReq          546                       # Transaction distribution
system.tol2bus.trans_dist::InvalidateResp          546                       # Transaction distribution
system.tol2bus.pkt_count_system.cpu.icache.mem_side::system.l2.cpu_side        17204                       # Packet count per connected master and slave (bytes)
system.tol2bus.pkt_count_system.cpu.dcache.mem_side::system.l2.cpu_side        12906                       # Packet count per connected master and slave (bytes)
system.tol2bus.pkt_count::total                 30110                       # Packet count per connected master and slave (bytes)
system.tol2bus.pkt_size_system.cpu.icache.mem_side::system.l2.cpu_side       733696                       # Cumulative packet size per connected master and slave (bytes)
system.tol2bus.pkt_size_system.cpu.dcache.mem_side::system.l2.cpu_side       488448                       # Cumulative packet size per connected master and slave (bytes)
system.tol2bus.pkt_size::total                1222144                       # Cumulative packet size per connected master and slave (bytes)
system.tol2bus.snoops                               0                       # Total snoops (count)
system.tol2bus.snoopTraffic                         0                       # Total snoop traffic (bytes)
system.tol2bus.snoop_fanout::samples            10382                       # Request fanout histogram
system.tol2bus.snoop_fanout::mean            0.000096                       # Request fanout histogram
system.tol2bus.snoop_fanout::stdev           0.009814                       # Request fanout histogram
system.tol2bus.snoop_fanout::underflows             0      0.00%      0.00% # Request fanout histogram
system.tol2bus.snoop_fanout::0                  10381     99.99%     99.99% # Request fanout histogram
system.tol2bus.snoop_fanout::1                      1      0.01%    100.00% # Request fanout histogram
system.tol2bus.snoop_fanout::2                      0      0.00%    100.00% # Request fanout histogram
system.tol2bus.snoop_fanout::overflows              0      0.00%    100.00% # Request fanout histogram
system.tol2bus.snoop_fanout::min_value              0                       # Request fanout histogram
system.tol2bus.snoop_fanout::max_value              1                       # Request fanout histogram
system.tol2bus.snoop_fanout::total              10382                       # Request fanout histogram
system.tol2bus.reqLayer0.occupancy           19124000                       # Layer occupancy (ticks)
system.tol2bus.reqLayer0.utilization              1.6                       # Layer utilization (%)
system.tol2bus.respLayer1.occupancy           6417499                       # Layer occupancy (ticks)
system.tol2bus.respLayer1.utilization             0.5                       # Layer utilization (%)
system.tol2bus.respLayer0.occupancy           8610000                       # Layer occupancy (ticks)
system.tol2bus.respLayer0.utilization             0.7                       # Layer utilization (%)
system.tol2bus.power_state.pwrStateResidencyTicks::UNDEFINED   1197991500                       # Cumulative time (in ticks) in various power states
system.voltage_domain.voltage                       1                       # Voltage in Volts
system.clk_domain.clock                          1000                       # Clock period in ticks
system.l2.demand_hits::.cpu.inst                 5152                       # number of demand (read+write) hits
system.l2.demand_hits::.cpu.data                 3296                       # number of demand (read+write) hits
system.l2.demand_hits::total                     8448                       # number of demand (read+write) hits
system.l2.overall_hits::.cpu.inst                5152                       # number of overall hits
system.l2.overall_hits::.cpu.data                3296                       # number of overall hits
system.l2.overall_hits::total                    8448                       # number of overall hits
system.l2.demand_misses::.cpu.inst                588                       # number of demand (read+write) misses
system.l2.demand_misses::.cpu.data                800                       # number of demand (read+write) misses
system.l2.demand_misses::total                   1388                       # number of demand (read+write) misses
system.l2.overall_misses::.cpu.inst               588                       # number of overall misses
system.l2.overall_misses::.cpu.data               800                       # number of overall misses
system.l2.overall_misses::total                  1388                       # number of overall misses
system.l2.demand_miss_latency::.cpu.inst     45770500                       # number of demand (read+write) miss cycles
system.l2.demand_miss_latency::.cpu.data     60731500                       # number of demand (read+write) miss cycles
system.l2.demand_miss_latency::total        106502000                       # number of demand (read+write) miss cycles
system.l2.overall_miss_latency::.cpu.inst     45770500                       # number of overall miss cycles
system.l2.overall_miss_latency::.cpu.data     60731500                       # number of overall miss cycles
system.l2.overall_miss_latency::total       106502000                       # number of overall miss cycles
system.l2.demand_accesses::.cpu.inst             5740                       # number of demand (read+write) accesses
system.l2.demand_accesses::.cpu.data             4096                       # number of demand (read+write) accesses
system.l2.demand_accesses::total                 9836                       # number of demand (read+write) accesses
system.l2.overall_accesses::.cpu.inst            5740                       # number of overall (read+write) accesses
system.l2.overall_accesses::.cpu.data            4096                       # number of overall (read+write) accesses
system.l2.overall_accesses::total                9836                       # number of overall (read+write) accesses
system.l2.demand_miss_rate::.cpu.inst        0.102439                       # miss rate for demand accesses
system.l2.demand_miss_rate::.cpu.data        0.195312                       # miss rate for demand accesses
system.l2.demand_miss_rate::total            0.141114                       # miss rate for demand accesses
system.l2.overall_miss_rate::.cpu.inst       0.102439                       # miss rate for overall accesses
system.l2.overall_miss_rate::.cpu.data       0.195312                       # miss rate for overall accesses
system.l2.overall_miss_rate::total           0.141114                       # miss rate for overall accesses
system.l2.demand_avg_miss_latency::.cpu.inst 77840.986395                       # average overall miss latency
system.l2.demand_avg_miss_latency::.cpu.data 75914.375000                       # average overall miss latency
system.l2.demand_avg_miss_latency::total 76730.547550                       # average overall miss latency
system.l2.overall_avg_miss_latency::.cpu.inst 77840.986395                       # average overall miss latency
system.l2.overall_avg_miss_latency::.cpu.data 75914.375000                       # average overall miss latency
system.l2.overall_avg_miss_latency::total 76730.547550                       # average overall miss latency
system.l2.blocked_cycles::no_mshrs                  0                       # number of cycles access was blocked
system.l2.blocked_cycles::no_targets                0                       # number of cycles access was blocked
system.l2.blocked::no_mshrs                         0                       # number of cycles access was blocked
system.l2.blocked::no_targets                       0                       # number of cycles access was blocked
system.l2.avg_blocked_cycles::no_mshrs            nan                       # average number of cycles each access was blocked
system.l2.avg_blocked_cycles::no_targets          nan                       # average number of cycles each access was blocked
system.l2.demand_mshr_misses::.cpu.inst           588                       # number of demand (read+write) MSHR misses
system.l2.demand_mshr_misses::.cpu.data           800                       # number of demand (read+write) MSHR misses
system.l2.demand_mshr_misses::total              1388                       # number of demand (read+write) MSHR misses
system.l2.overall_mshr_misses::.cpu.inst          588                       # number of overall MSHR misses
system.l2.overall_mshr_misses::.cpu.data          800                       # number of overall MSHR misses
system.l2.overall_mshr_misses::total             1388                       # number of overall MSHR misses
system.l2.demand_mshr_miss_latency::.cpu.inst     39890500                       # number of demand (read+write) MSHR miss cycles
system.l2.demand_mshr_miss_latency::.cpu.data     52731500                       # number of demand (read+write) MSHR miss cycles
system.l2.demand_mshr_miss_latency::total     92622000                       # number of demand (read+write) MSHR miss cycles
system.l2.overall_mshr_miss_latency::.cpu.inst     39890500                       # number of overall MSHR miss cycles
system.l2.overall_mshr_miss_latency::.cpu.data     52731500                       # number of overall MSHR miss cycles
system.l2.overall_mshr_miss_latency::total     92622000                       # number of overall MSHR miss cycles
system.l2.demand_mshr_miss_rate::.cpu.inst     0.102439                       # mshr miss rate for demand accesses
system.l2.demand_mshr_miss_rate::.cpu.data     0.195312                       # mshr miss rate for demand accesses
system.l2.demand_mshr_miss_rate::total       0.141114                       # mshr miss rate for demand accesses
system.l2.overall_mshr_miss_rate::.cpu.inst     0.102439                       # mshr miss rate for overall accesses
system.l2.overall_mshr_miss_rate::.cpu.data     0.195312                       # mshr miss rate for overall accesses
system.l2.overall_mshr_miss_rate::total      0.141114                       # mshr miss rate for overall accesses
system.l2.demand_avg_mshr_miss_latency::.cpu.inst 67840.986395                       # average overall mshr miss latency
system.l2.demand_avg_mshr_miss_latency::.cpu.data 65914.375000                       # average overall mshr miss latency
system.l2.demand_avg_mshr_miss_latency::total 66730.547550                       # average overall mshr miss latency
system.l2.overall_avg_mshr_miss_latency::.cpu.inst 67840.986395                       # average overall mshr miss latency
system.l2.overall_avg_mshr_miss_latency::.cpu.data 65914.375000                       # average overall mshr miss latency
system.l2.overall_avg_mshr_miss_latency::total 66730.547550                       # average overall mshr miss latency
system.l2.replacements                              0                       # number of replacements
system.l2.WritebackDirty_hits::.writebacks         3536                       # number of WritebackDirty hits
system.l2.WritebackDirty_hits::total             3536                       # number of WritebackDirty hits
system.l2.WritebackDirty_accesses::.writebacks         3536                       # number of WritebackDirty accesses(hits+misses)
system.l2.WritebackDirty_accesses::total         3536                       # number of WritebackDirty accesses(hits+misses)
system.l2.WritebackClean_hits::.writebacks         5723                       # number of WritebackClean hits
system.l2.WritebackClean_hits::total             5723                       # number of WritebackClean hits
system.l2.WritebackClean_accesses::.writebacks         5723                       # number of WritebackClean accesses(hits+misses)
system.l2.WritebackClean_accesses::total         5723                       # number of WritebackClean accesses(hits+misses)
system.l2.ReadExReq_hits::.cpu.data               208                       # number of ReadExReq hits
system.l2.ReadExReq_hits::total                   208                       # number of ReadExReq hits
system.l2.ReadExReq_misses::.cpu.data             698                       # number of ReadExReq misses
system.l2.ReadExReq_misses::total                 698                       # number of ReadExReq misses
system.l2.ReadExReq_miss_latency::.cpu.data     52174500                       # number of ReadExReq miss cycles
system.l2.ReadExReq_miss_latency::total      52174500                       # number of ReadExReq miss cycles
system.l2.ReadExReq_accesses::.cpu.data           906                       # number of ReadExReq accesses(hits+misses)
system.l2.ReadExReq_accesses::total               906                       # number of ReadExReq accesses(hits+misses)
system.l2.ReadExReq_miss_rate::.cpu.data     0.770419                       # miss rate for ReadExReq accesses
system.l2.ReadExReq_miss_rate::total         0.770419                       # miss rate for ReadExReq accesses
system.l2.ReadExReq_avg_miss_latency::.cpu.data 74748.567335                       # average ReadExReq miss latency
system.l2.ReadExReq_avg_miss_latency::total 74748.567335                       # average ReadExReq miss latency
system.l2.ReadExReq_mshr_misses::.cpu.data          698                       # number of ReadExReq MSHR misses
system.l2.ReadExReq_mshr_misses::total            698                       # number of ReadExReq MSHR misses
system.l2.ReadExReq_mshr_miss_latency::.cpu.data     45194500                       # number of ReadExReq MSHR miss cycles
system.l2.ReadExReq_mshr_miss_latency::total     45194500                       # number of ReadExReq MSHR miss cycles
system.l2.ReadExReq_mshr_miss_rate::.cpu.data     0.770419                       # mshr miss rate for ReadExReq accesses
system.l2.ReadExReq_mshr_miss_rate::total     0.770419                       # mshr miss rate for ReadExReq accesses
system.l2.ReadExReq_avg_mshr_miss_latency::.cpu.data 64748.567335                       # average ReadExReq mshr miss latency
system.l2.ReadExReq_avg_mshr_miss_latency::total 64748.567335                       # average ReadExReq mshr miss latency
system.l2.ReadCleanReq_hits::.cpu.inst           5152                       # number of ReadCleanReq hits
system.l2.ReadCleanReq_hits::total               5152                       # number of ReadCleanReq hits
system.l2.ReadCleanReq_misses::.cpu.inst          588                       # number of ReadCleanReq misses
system.l2.ReadCleanReq_misses::total              588                       # number of ReadCleanReq misses
system.l2.ReadCleanReq_miss_latency::.cpu.inst     45770500                       # number of ReadCleanReq miss cycles
system.l2.ReadCleanReq_miss_latency::total     45770500                       # number of ReadCleanReq miss cycles
system.l2.ReadCleanReq_accesses::.cpu.inst         5740                       # number of ReadCleanReq accesses(hits+misses)
system.l2.ReadCleanReq_accesses::total           5740                       # number of ReadCleanReq accesses(hits+misses)
system.l2.ReadCleanReq_miss_rate::.cpu.inst     0.102439                       # miss rate for ReadCleanReq accesses
system.l2.ReadCleanReq_miss_rate::total      0.102439                       # miss rate for ReadCleanReq accesses
system.l2.ReadCleanReq_avg_miss_latency::.cpu.inst 77840.986395                       # average ReadCleanReq miss latency
system.l2.ReadCleanReq_avg_miss_latency::total 77840.986395                       # average ReadCleanReq miss latency
system.l2.ReadCleanReq_mshr_misses::.cpu.inst          588                       # number of ReadCleanReq MSHR misses
system.l2.ReadCleanReq_mshr_misses::total          588                       # number of ReadCleanReq MSHR misses
system.l2.ReadCleanReq_mshr_miss_latency::.cpu.inst     39890500                       # number of ReadCleanReq MSHR miss cycles
system.l2.ReadCleanReq_mshr_miss_latency::total     39890500                       # number of ReadCleanReq MSHR miss cycles
system.l2.ReadCleanReq_mshr_miss_rate::.cpu.inst     0.102439                       # mshr miss rate for ReadCleanReq accesses
system.l2.ReadCleanReq_mshr_miss_rate::total     0.102439                       # mshr miss rate for ReadCleanReq accesses
system.l2.ReadCleanReq_avg_mshr_miss_latency::.cpu.inst 67840.986395                       # average ReadCleanReq mshr miss latency
system.l2.ReadCleanReq_avg_mshr_miss_latency::total 67840.986395                       # average ReadCleanReq mshr miss latency
system.l2.ReadSharedReq_hits::.cpu.data          3088                       # number of ReadSharedReq hits
[...]
system.cpu.icache.tags.tag_accesses            618862                       # Number of tag accesses
system.cpu.icache.tags.data_accesses           618862                       # Number of data accesses
system.cpu.icache.tags.power_state.pwrStateResidencyTicks::UNDEFINED   1197991500                       # Cumulative time (in ticks) in various power states
system.cpu.dtb.walker.power_state.pwrStateResidencyTicks::UNDEFINED   1197991500                       # Cumulative time (in ticks) in various power states
system.cpu.dtb.stage2_mmu.stage2_tlb.walker.power_state.pwrStateResidencyTicks::UNDEFINED   1197991500                       # Cumulative time (in ticks) in various power states
system.cpu.itb.walker.power_state.pwrStateResidencyTicks::UNDEFINED   1197991500                       # Cumulative time (in ticks) in various power states
system.cpu.itb.stage2_mmu.stage2_tlb.walker.power_state.pwrStateResidencyTicks::UNDEFINED   1197991500                       # Cumulative time (in ticks) in various power states
system.cpu.dcache.demand_hits::.cpu.data      3178208                       # number of demand (read+write) hits
system.cpu.dcache.demand_hits::total          3178208                       # number of demand (read+write) hits
system.cpu.dcache.overall_hits::.cpu.data      3178230                       # number of overall hits
system.cpu.dcache.overall_hits::total         3178230                       # number of overall hits
system.cpu.dcache.demand_misses::.cpu.data        19567                       # number of demand (read+write) misses
system.cpu.dcache.demand_misses::total          19567                       # number of demand (read+write) misses
system.cpu.dcache.overall_misses::.cpu.data        19569                       # number of overall misses
system.cpu.dcache.overall_misses::total         19569                       # number of overall misses
system.cpu.dcache.demand_miss_latency::.cpu.data    655864483                       # number of demand (read+write) miss cycles
system.cpu.dcache.demand_miss_latency::total    655864483                       # number of demand (read+write) miss cycles
system.cpu.dcache.overall_miss_latency::.cpu.data    655864483                       # number of overall miss cycles
system.cpu.dcache.overall_miss_latency::total    655864483                       # number of overall miss cycles
system.cpu.dcache.demand_accesses::.cpu.data      3197775                       # number of demand (read+write) accesses
system.cpu.dcache.demand_accesses::total      3197775                       # number of demand (read+write) accesses
system.cpu.dcache.overall_accesses::.cpu.data      3197799                       # number of overall (read+write) accesses
system.cpu.dcache.overall_accesses::total      3197799                       # number of overall (read+write) accesses
system.cpu.dcache.demand_miss_rate::.cpu.data     0.006119                       # miss rate for demand accesses
system.cpu.dcache.demand_miss_rate::total     0.006119                       # miss rate for demand accesses
system.cpu.dcache.overall_miss_rate::.cpu.data     0.006120                       # miss rate for overall accesses
system.cpu.dcache.overall_miss_rate::total     0.006120                       # miss rate for overall accesses
system.cpu.dcache.demand_avg_miss_latency::.cpu.data 33518.908519                       # average overall miss latency
system.cpu.dcache.demand_avg_miss_latency::total 33518.908519                       # average overall miss latency
system.cpu.dcache.overall_avg_miss_latency::.cpu.data 33515.482804                       # average overall miss latency
system.cpu.dcache.overall_avg_miss_latency::total 33515.482804                       # average overall miss latency
system.cpu.dcache.blocked_cycles::no_mshrs        11683                       # number of cycles access was blocked
system.cpu.dcache.blocked_cycles::no_targets            0                       # number of cycles access was blocked
system.cpu.dcache.blocked::no_mshrs               607                       # number of cycles access was blocked
system.cpu.dcache.blocked::no_targets               0                       # number of cycles access was blocked
system.cpu.dcache.avg_blocked_cycles::no_mshrs    19.247117                       # average number of cycles each access was blocked
system.cpu.dcache.avg_blocked_cycles::no_targets          nan                       # average number of cycles each access was blocked
system.cpu.dcache.writebacks::.writebacks         3536                       # number of writebacks
system.cpu.dcache.writebacks::total              3536                       # number of writebacks
system.cpu.dcache.demand_mshr_hits::.cpu.data        14927                       # number of demand (read+write) MSHR hits
system.cpu.dcache.demand_mshr_hits::total        14927                       # number of demand (read+write) MSHR hits
system.cpu.dcache.overall_mshr_hits::.cpu.data        14927                       # number of overall MSHR hits
system.cpu.dcache.overall_mshr_hits::total        14927                       # number of overall MSHR hits
system.cpu.dcache.demand_mshr_misses::.cpu.data         4640                       # number of demand (read+write) MSHR misses
system.cpu.dcache.demand_mshr_misses::total         4640                       # number of demand (read+write) MSHR misses
system.cpu.dcache.overall_mshr_misses::.cpu.data         4642                       # number of overall MSHR misses
system.cpu.dcache.overall_mshr_misses::total         4642                       # number of overall MSHR misses
system.cpu.dcache.demand_mshr_miss_latency::.cpu.data    118327552                       # number of demand (read+write) MSHR miss cycles
system.cpu.dcache.demand_mshr_miss_latency::total    118327552                       # number of demand (read+write) MSHR miss cycles
system.cpu.dcache.overall_mshr_miss_latency::.cpu.data    118490052                       # number of overall MSHR miss cycles
system.cpu.dcache.overall_mshr_miss_latency::total    118490052                       # number of overall MSHR miss cycles
system.cpu.dcache.demand_mshr_miss_rate::.cpu.data     0.001451                       # mshr miss rate for demand accesses
system.cpu.dcache.demand_mshr_miss_rate::total     0.001451                       # mshr miss rate for demand accesses
system.cpu.dcache.overall_mshr_miss_rate::.cpu.data     0.001452                       # mshr miss rate for overall accesses
system.cpu.dcache.overall_mshr_miss_rate::total     0.001452                       # mshr miss rate for overall accesses
system.cpu.dcache.demand_avg_mshr_miss_latency::.cpu.data 25501.627586                       # average overall mshr miss latency
system.cpu.dcache.demand_avg_mshr_miss_latency::total 25501.627586                       # average overall mshr miss latency
system.cpu.dcache.overall_avg_mshr_miss_latency::.cpu.data 25525.646704                       # average overall mshr miss latency
system.cpu.dcache.overall_avg_mshr_miss_latency::total 25525.646704                       # average overall mshr miss latency
system.cpu.dcache.replacements                   3622                       # number of replacements
system.cpu.dcache.ReadReq_hits::.cpu.data      2572608                       # number of ReadReq hits
system.cpu.dcache.ReadReq_hits::total         2572608                       # number of ReadReq hits
system.cpu.dcache.ReadReq_misses::.cpu.data         9142                       # number of ReadReq misses
system.cpu.dcache.ReadReq_misses::total          9142                       # number of ReadReq misses
system.cpu.dcache.ReadReq_miss_latency::.cpu.data    127760000                       # number of ReadReq miss cycles
system.cpu.dcache.ReadReq_miss_latency::total    127760000                       # number of ReadReq miss cycles
system.cpu.dcache.ReadReq_accesses::.cpu.data      2581750                       # number of ReadReq accesses(hits+misses)
system.cpu.dcache.ReadReq_accesses::total      2581750                       # number of ReadReq accesses(hits+misses)
system.cpu.dcache.ReadReq_miss_rate::.cpu.data     0.003541                       # miss rate for ReadReq accesses
system.cpu.dcache.ReadReq_miss_rate::total     0.003541                       # miss rate for ReadReq accesses
system.cpu.dcache.ReadReq_avg_miss_latency::.cpu.data 13975.060162                       # average ReadReq miss latency
system.cpu.dcache.ReadReq_avg_miss_latency::total 13975.060162                       # average ReadReq miss latency
system.cpu.dcache.ReadReq_mshr_hits::.cpu.data         5954                       # number of ReadReq MSHR hits
system.cpu.dcache.ReadReq_mshr_hits::total         5954                       # number of ReadReq MSHR hits
system.cpu.dcache.ReadReq_mshr_misses::.cpu.data         3188                       # number of ReadReq MSHR misses
system.cpu.dcache.ReadReq_mshr_misses::total         3188                       # number of ReadReq MSHR misses
system.cpu.dcache.ReadReq_mshr_miss_latency::.cpu.data     45612500                       # number of ReadReq MSHR miss cycles
system.cpu.dcache.ReadReq_mshr_miss_latency::total     45612500                       # number of ReadReq MSHR miss cycles
system.cpu.dcache.ReadReq_mshr_miss_rate::.cpu.data     0.001235                       # mshr miss rate for ReadReq accesses
system.cpu.dcache.ReadReq_mshr_miss_rate::total     0.001235                       # mshr miss rate for ReadReq accesses
system.cpu.dcache.ReadReq_avg_mshr_miss_latency::.cpu.data 14307.559598                       # average ReadReq mshr miss latency
system.cpu.dcache.ReadReq_avg_mshr_miss_latency::total 14307.559598                       # average ReadReq mshr miss latency
system.cpu.dcache.WriteReq_hits::.cpu.data       605581                       # number of WriteReq hits
system.cpu.dcache.WriteReq_hits::total         605581                       # number of WriteReq hits
system.cpu.dcache.WriteReq_misses::.cpu.data         9880                       # number of WriteReq misses
system.cpu.dcache.WriteReq_misses::total         9880                       # number of WriteReq misses
system.cpu.dcache.WriteReq_miss_latency::.cpu.data    510621427                       # number of WriteReq miss cycles
system.cpu.dcache.WriteReq_miss_latency::total    510621427                       # number of WriteReq miss cycles
system.cpu.dcache.WriteReq_accesses::.cpu.data       615461                       # number of WriteReq accesses(hits+misses)
system.cpu.dcache.WriteReq_accesses::total       615461                       # number of WriteReq accesses(hits+misses)
system.cpu.dcache.WriteReq_miss_rate::.cpu.data     0.016053                       # miss rate for WriteReq accesses
system.cpu.dcache.WriteReq_miss_rate::total     0.016053                       # miss rate for WriteReq accesses
system.cpu.dcache.WriteReq_avg_miss_latency::.cpu.data 51682.330668                       # average WriteReq miss latency
system.cpu.dcache.WriteReq_avg_miss_latency::total 51682.330668                       # average WriteReq miss latency
system.cpu.dcache.WriteReq_mshr_hits::.cpu.data         8973                       # number of WriteReq MSHR hits
system.cpu.dcache.WriteReq_mshr_hits::total         8973                       # number of WriteReq MSHR hits
system.cpu.dcache.WriteReq_mshr_misses::.cpu.data          907                       # number of WriteReq MSHR misses
system.cpu.dcache.WriteReq_mshr_misses::total          907                       # number of WriteReq MSHR misses
system.cpu.dcache.WriteReq_mshr_miss_latency::.cpu.data     55776996                       # number of WriteReq MSHR miss cycles
system.cpu.dcache.WriteReq_mshr_miss_latency::total     55776996                       # number of WriteReq MSHR miss cycles
system.cpu.dcache.WriteReq_mshr_miss_rate::.cpu.data     0.001474                       # mshr miss rate for WriteReq accesses
system.cpu.dcache.WriteReq_mshr_miss_rate::total     0.001474                       # mshr miss rate for WriteReq accesses
system.cpu.dcache.WriteReq_avg_mshr_miss_latency::.cpu.data 61496.136714                       # average WriteReq mshr miss latency
system.cpu.dcache.WriteReq_avg_mshr_miss_latency::total 61496.136714                       # average WriteReq mshr miss latency
system.cpu.dcache.SoftPFReq_hits::.cpu.data           22                       # number of SoftPFReq hits
system.cpu.dcache.SoftPFReq_hits::total            22                       # number of SoftPFReq hits
system.cpu.dcache.SoftPFReq_misses::.cpu.data            2                       # number of SoftPFReq misses
system.cpu.dcache.SoftPFReq_misses::total            2                       # number of SoftPFReq misses
system.cpu.dcache.SoftPFReq_accesses::.cpu.data           24                       # number of SoftPFReq accesses(hits+misses)
system.cpu.dcache.SoftPFReq_accesses::total           24                       # number of SoftPFReq accesses(hits+misses)
system.cpu.dcache.SoftPFReq_miss_rate::.cpu.data     0.083333                       # miss rate for SoftPFReq accesses
system.cpu.dcache.SoftPFReq_miss_rate::total     0.083333                       # miss rate for SoftPFReq accesses
system.cpu.dcache.SoftPFReq_mshr_misses::.cpu.data            2                       # number of SoftPFReq MSHR misses
system.cpu.dcache.SoftPFReq_mshr_misses::total            2                       # number of SoftPFReq MSHR misses
system.cpu.dcache.SoftPFReq_mshr_miss_latency::.cpu.data       162500                       # number of SoftPFReq MSHR miss cycles
system.cpu.dcache.SoftPFReq_mshr_miss_latency::total       162500                       # number of SoftPFReq MSHR miss cycles
system.cpu.dcache.SoftPFReq_mshr_miss_rate::.cpu.data     0.083333                       # mshr miss rate for SoftPFReq accesses
system.cpu.dcache.SoftPFReq_mshr_miss_rate::total     0.083333                       # mshr miss rate for SoftPFReq accesses
system.cpu.dcache.SoftPFReq_avg_mshr_miss_latency::.cpu.data        81250                       # average SoftPFReq mshr miss latency
system.cpu.dcache.SoftPFReq_avg_mshr_miss_latency::total        81250                       # average SoftPFReq mshr miss latency
system.cpu.dcache.WriteLineReq_hits::.cpu.data           19                       # number of WriteLineReq hits
system.cpu.dcache.WriteLineReq_hits::total           19                       # number of WriteLineReq hits
system.cpu.dcache.WriteLineReq_misses::.cpu.data          545                       # number of WriteLineReq misses
system.cpu.dcache.WriteLineReq_misses::total          545                       # number of WriteLineReq misses
system.cpu.dcache.WriteLineReq_miss_latency::.cpu.data     17483056                       # number of WriteLineReq miss cycles
system.cpu.dcache.WriteLineReq_miss_latency::total     17483056                       # number of WriteLineReq miss cycles
system.cpu.dcache.WriteLineReq_accesses::.cpu.data          564                       # number of WriteLineReq accesses(hits+misses)
system.cpu.dcache.WriteLineReq_accesses::total          564                       # number of WriteLineReq accesses(hits+misses)
system.cpu.dcache.WriteLineReq_miss_rate::.cpu.data     0.966312                       # miss rate for WriteLineReq accesses
system.cpu.dcache.WriteLineReq_miss_rate::total     0.966312                       # miss rate for WriteLineReq accesses
system.cpu.dcache.WriteLineReq_avg_miss_latency::.cpu.data 32079.001835                       # average WriteLineReq miss latency
system.cpu.dcache.WriteLineReq_avg_miss_latency::total 32079.001835                       # average WriteLineReq miss latency
system.cpu.dcache.WriteLineReq_mshr_misses::.cpu.data          545                       # number of WriteLineReq MSHR misses
system.cpu.dcache.WriteLineReq_mshr_misses::total          545                       # number of WriteLineReq MSHR misses
system.cpu.dcache.WriteLineReq_mshr_miss_latency::.cpu.data     16938056                       # number of WriteLineReq MSHR miss cycles
system.cpu.dcache.WriteLineReq_mshr_miss_latency::total     16938056                       # number of WriteLineReq MSHR miss cycles
system.cpu.dcache.WriteLineReq_mshr_miss_rate::.cpu.data     0.966312                       # mshr miss rate for WriteLineReq accesses
system.cpu.dcache.WriteLineReq_mshr_miss_rate::total     0.966312                       # mshr miss rate for WriteLineReq accesses
system.cpu.dcache.WriteLineReq_avg_mshr_miss_latency::.cpu.data 31079.001835                       # average WriteLineReq mshr miss latency
system.cpu.dcache.WriteLineReq_avg_mshr_miss_latency::total 31079.001835                       # average WriteLineReq mshr miss latency
system.cpu.dcache.LoadLockedReq_hits::.cpu.data           53                       # number of LoadLockedReq hits
system.cpu.dcache.LoadLockedReq_hits::total           53                       # number of LoadLockedReq hits
system.cpu.dcache.LoadLockedReq_accesses::.cpu.data           53                       # number of LoadLockedReq accesses(hits+misses)
system.cpu.dcache.LoadLockedReq_accesses::total           53                       # number of LoadLockedReq accesses(hits+misses)
system.cpu.dcache.StoreCondReq_hits::.cpu.data           48                       # number of StoreCondReq hits
system.cpu.dcache.StoreCondReq_hits::total           48                       # number of StoreCondReq hits
system.cpu.dcache.StoreCondReq_accesses::.cpu.data           48                       # number of StoreCondReq accesses(hits+misses)
system.cpu.dcache.StoreCondReq_accesses::total           48                       # number of StoreCondReq accesses(hits+misses)
system.cpu.dcache.power_state.pwrStateResidencyTicks::UNDEFINED   1197991500                       # Cumulative time (in ticks) in various power states
system.cpu.dcache.tags.tagsinuse           973.185655                       # Cycle average of tags in use
system.cpu.dcache.tags.total_refs             3182973                       # Total number of references to valid blocks.
system.cpu.dcache.tags.sampled_refs              4642                       # Sample count of references to valid blocks.
system.cpu.dcache.tags.avg_refs            685.690004                       # Average number of references to valid blocks.
system.cpu.dcache.tags.warmup_cycle            176500                       # Cycle when the warmup percentage was hit.
system.cpu.dcache.tags.occ_blocks::.cpu.data   973.185655                       # Average occupied blocks per requestor
system.cpu.dcache.tags.occ_percent::.cpu.data     0.950377                       # Average percentage of cache occupancy
system.cpu.dcache.tags.occ_percent::total     0.950377                       # Average percentage of cache occupancy
system.cpu.dcache.tags.occ_task_id_blocks::1024         1020                       # Occupied blocks per task id
system.cpu.dcache.tags.age_task_id_blocks_1024::0            4                       # Occupied blocks per task id
system.cpu.dcache.tags.age_task_id_blocks_1024::3         1016                       # Occupied blocks per task id
system.cpu.dcache.tags.occ_task_id_percent::1024     0.996094                       # Percentage of cache occupancy per task id
system.cpu.dcache.tags.tag_accesses           6400442                       # Number of tag accesses
system.cpu.dcache.tags.data_accesses          6400442                       # Number of data accesses
system.cpu.dcache.tags.power_state.pwrStateResidencyTicks::UNDEFINED   1197991500                       # Cumulative time (in ticks) in various power states
system.cpu.power_state.pwrStateResidencyTicks::ON   1197991500                       # Cumulative time (in ticks) in various power states

---------- End Simulation Statistics   ----------
