
---------- Begin Simulation Statistics ----------
final_tick                                  615469000                       # Number of ticks from beginning of simulation (restored from checkpoints and never reset)
host_inst_rate                                  88982                       # Simulator instruction rate (inst/s)
host_mem_usage                                 900596                       # Number of bytes of host memory used
host_op_rate                                   108419                       # Simulator op (including micro ops) rate (op/s)
host_seconds                                    11.24                       # Real time elapsed on the host
host_tick_rate                               54764784                       # Simulator tick rate (ticks/s)
sim_freq                                 1000000000000                       # Frequency of simulated ticks
sim_insts                                     1000003                       # Number of instructions simulated
sim_ops                                       1218460                       # Number of ops (including micro ops) simulated
sim_seconds                                  0.000615                       # Number of seconds simulated
sim_ticks                                   615469000                       # Number of ticks simulated
system.cpu.branchPred.BTBCorrect                    0                       # Number of correct BTB predictions (this stat may not work properly.
system.cpu.branchPred.BTBHitPct             92.132516                       # BTB Hit Percentage
system.cpu.branchPred.BTBHits                  121169                       # Number of BTB hits
system.cpu.branchPred.BTBLookups               131516                       # Number of BTB lookups
system.cpu.branchPred.RASInCorrect                100                       # Number of incorrect RAS predictions.
system.cpu.branchPred.condIncorrect             11230                       # Number of conditional branches incorrect
system.cpu.branchPred.condPredicted            206593                       # Number of conditional branches predicted
system.cpu.branchPred.indirectHits               1941                       # Number of indirect target hits.
system.cpu.branchPred.indirectLookups            5466                       # Number of indirect predictor lookups.
system.cpu.branchPred.indirectMisses             3525                       # Number of indirect misses.
system.cpu.branchPred.lookups                  270747                       # Number of BP lookups
system.cpu.branchPred.usedRAS                   22349                       # Number of times the RAS was used to get a target.
system.cpu.branchPredindirectMispredicted          983                       # Number of mispredicted indirect branches.
system.cpu.cc_regfile_reads                    424260                       # number of cc regfile reads
system.cpu.cc_regfile_writes                   422464                       # number of cc regfile writes
system.cpu.commit.amos                              0                       # Number of atomic instructions committed
system.cpu.commit.branchMispredicts              7584                       # The number of times a branch was mispredicted
system.cpu.commit.branches                     220013                       # Number of branches committed
system.cpu.commit.bw_lim_events                 60953                       # number cycles where commit BW limit reached
system.cpu.commit.commitNonSpecStalls             562                       # The number of times commit has been forced to stall to communicate backwards
system.cpu.commit.commitSquashedInsts          145330                       # The number of squashed insts skipped by commit
system.cpu.commit.committedInsts              1001879                       # Number of instructions committed
system.cpu.commit.committedOps                1220336                       # Number of ops (including micro ops) committed
system.cpu.commit.committed_per_cycle::samples       968571                       # Number of insts commited each cycle
system.cpu.commit.committed_per_cycle::mean     1.259934                       # Number of insts commited each cycle
system.cpu.commit.committed_per_cycle::stdev     2.281634                       # Number of insts commited each cycle
system.cpu.commit.committed_per_cycle::underflows            0      0.00%      0.00% # Number of insts commited each cycle
system.cpu.commit.committed_per_cycle::0       618627     63.87%     63.87% # Number of insts commited each cycle
system.cpu.commit.committed_per_cycle::1       105890     10.93%     74.80% # Number of insts commited each cycle
system.cpu.commit.committed_per_cycle::2        74507      7.69%     82.50% # Number of insts commited each cycle
system.cpu.commit.committed_per_cycle::3        35453      3.66%     86.16% # Number of insts commited each cycle
system.cpu.commit.committed_per_cycle::4        25354      2.62%     88.77% # Number of insts commited each cycle
system.cpu.commit.committed_per_cycle::5        23375      2.41%     91.19% # Number of insts commited each cycle
system.cpu.commit.committed_per_cycle::6        17726      1.83%     93.02% # Number of insts commited each cycle
system.cpu.commit.committed_per_cycle::7         6686      0.69%     93.71% # Number of insts commited each cycle
system.cpu.commit.committed_per_cycle::8        60953      6.29%    100.00% # Number of insts commited each cycle
system.cpu.commit.committed_per_cycle::overflows            0      0.00%    100.00% # Number of insts commited each cycle
system.cpu.commit.committed_per_cycle::min_value            0                       # Number of insts commited each cycle
system.cpu.commit.committed_per_cycle::max_value            8                       # Number of insts commited each cycle
system.cpu.commit.committed_per_cycle::total       968571                       # Number of insts commited each cycle
system.cpu.commit.fp_insts                          0                       # Number of committed floating point instructions.
system.cpu.commit.function_calls                16807                       # Number of function calls committed.
system.cpu.commit.int_insts                   1116086                       # Number of committed integer instructions.
system.cpu.commit.loads                        172392                       # Number of loads committed
system.cpu.commit.membars                         554                       # Number of memory barriers committed
system.cpu.commit.op_class_0::No_OpClass            6      0.00%      0.00% # Class of committed instruction
system.cpu.commit.op_class_0::IntAlu           845283     69.27%     69.27% # Class of committed instruction
system.cpu.commit.op_class_0::IntMult            1323      0.11%     69.38% # Class of committed instruction
system.cpu.commit.op_class_0::IntDiv               95      0.01%     69.38% # Class of committed instruction
system.cpu.commit.op_class_0::FloatAdd              0      0.00%     69.38% # Class of committed instruction
system.cpu.commit.op_class_0::FloatCmp              1      0.00%     69.38% # Class of committed instruction
system.cpu.commit.op_class_0::FloatCvt              0      0.00%     69.38% # Class of committed instruction
system.cpu.commit.op_class_0::FloatMult             0      0.00%     69.38% # Class of committed instruction
system.cpu.commit.op_class_0::FloatMultAcc            0      0.00%     69.38% # Class of committed instruction
system.cpu.commit.op_class_0::FloatDiv              0      0.00%     69.38% # Class of committed instruction
system.cpu.commit.op_class_0::FloatMisc             1      0.00%     69.38% # Class of committed instruction
system.cpu.commit.op_class_0::FloatSqrt             2      0.00%     69.38% # Class of committed instruction
system.cpu.commit.op_class_0::SimdAdd              25      0.00%     69.39% # Class of committed instruction
system.cpu.commit.op_class_0::SimdAddAcc            0      0.00%     69.39% # Class of committed instruction
system.cpu.commit.op_class_0::SimdAlu              24      0.00%     69.39% # Class of committed instruction
system.cpu.commit.op_class_0::SimdCmp              24      0.00%     69.39% # Class of committed instruction
system.cpu.commit.op_class_0::SimdCvt               0      0.00%     69.39% # Class of committed instruction
system.cpu.commit.op_class_0::SimdMisc             57      0.00%     69.39% # Class of committed instruction
system.cpu.commit.op_class_0::SimdMult              0      0.00%     69.39% # Class of committed instruction
system.cpu.commit.op_class_0::SimdMultAcc            0      0.00%     69.39% # Class of committed instruction
system.cpu.commit.op_class_0::SimdShift             0      0.00%     69.39% # Class of committed instruction
system.cpu.commit.op_class_0::SimdShiftAcc            0      0.00%     69.39% # Class of committed instruction
system.cpu.commit.op_class_0::SimdDiv               0      0.00%     69.39% # Class of committed instruction
system.cpu.commit.op_class_0::SimdSqrt              0      0.00%     69.39% # Class of committed instruction
system.cpu.commit.op_class_0::SimdFloatAdd            0      0.00%     69.39% # Class of committed instruction
system.cpu.commit.op_class_0::SimdFloatAlu            0      0.00%     69.39% # Class of committed instruction
system.cpu.commit.op_class_0::SimdFloatCmp            0      0.00%     69.39% # Class of committed instruction
system.cpu.commit.op_class_0::SimdFloatCvt            0      0.00%     69.39% # Class of committed instruction
system.cpu.commit.op_class_0::SimdFloatDiv            0      0.00%     69.39% # Class of committed instruction
system.cpu.commit.op_class_0::SimdFloatMisc            0      0.00%     69.39% # Class of committed instruction
system.cpu.commit.op_class_0::SimdFloatMult            0      0.00%     69.39% # Class of committed instruction
system.cpu.commit.op_class_0::SimdFloatMultAcc            0      0.00%     69.39% # Class of committed instruction
system.cpu.commit.op_class_0::SimdFloatSqrt            0      0.00%     69.39% # Class of committed instruction
system.cpu.commit.op_class_0::SimdReduceAdd            0      0.00%     69.39% # Class of committed instruction
system.cpu.commit.op_class_0::SimdReduceAlu            0      0.00%     69.39% # Class of committed instruction
system.cpu.commit.op_class_0::SimdReduceCmp            0      0.00%     69.39% # Class of committed instruction
system.cpu.commit.op_class_0::SimdFloatReduceAdd            0      0.00%     69.39% # Class of committed instruction
system.cpu.commit.op_class_0::SimdFloatReduceCmp            0      0.00%     69.39% # Class of committed instruction
system.cpu.commit.op_class_0::SimdAes               0      0.00%     69.39% # Class of committed instruction
system.cpu.commit.op_class_0::SimdAesMix            0      0.00%     69.39% # Class of committed instruction
system.cpu.commit.op_class_0::SimdSha1Hash            0      0.00%     69.39% # Class of committed instruction
system.cpu.commit.op_class_0::SimdSha1Hash2            0      0.00%     69.39% # Class of committed instruction
system.cpu.commit.op_class_0::SimdSha256Hash            0      0.00%     69.39% # Class of committed instruction
system.cpu.commit.op_class_0::SimdSha256Hash2            0      0.00%     69.39% # Class of committed instruction
system.cpu.commit.op_class_0::SimdShaSigma2            0      0.00%     69.39% # Class of committed instruction
system.cpu.commit.op_class_0::SimdShaSigma3            0      0.00%     69.39% # Class of committed instruction
system.cpu.commit.op_class_0::SimdPredAlu            0      0.00%     69.39% # Class of committed instruction
system.cpu.commit.op_class_0::MemRead          172392     14.13%     83.52% # Class of committed instruction
system.cpu.commit.op_class_0::MemWrite         201103     16.48%    100.00% # Class of committed instruction
system.cpu.commit.op_class_0::FloatMemRead            0      0.00%    100.00% # Class of committed instruction
system.cpu.commit.op_class_0::FloatMemWrite            0      0.00%    100.00% # Class of committed instruction
system.cpu.commit.op_class_0::IprAccess             0      0.00%    100.00% # Class of committed instruction
system.cpu.commit.op_class_0::InstPrefetch            0      0.00%    100.00% # Class of committed instruction
system.cpu.commit.op_class_0::total           1220336                       # Class of committed instruction
system.cpu.commit.refs                         373495                       # Number of memory references committed
system.cpu.commit.swp_count                         0                       # Number of s/w prefetches committed
system.cpu.commit.vec_insts                      1122                       # Number of committed Vector instructions.
system.cpu.committedInsts                     1000003                       # Number of Instructions Simulated
system.cpu.committedOps                       1218460                       # Number of Ops (including micro ops) Simulated
system.cpu.cpi                               1.230938                       # CPI: Cycles Per Instruction
system.cpu.cpi_total                         1.230938                       # CPI: Total CPI of All Threads
system.cpu.decode.BlockedCycles                415344                       # Number of cycles decode is blocked
system.cpu.decode.BranchMispred                  3738                       # Number of times decode detected a branch misprediction
system.cpu.decode.BranchResolved               121438                       # Number of times decode resolved a branch
system.cpu.decode.DecodedInsts                1420838                       # Number of instructions handled by decode
system.cpu.decode.IdleCycles                   283080                       # Number of cycles decode is idle
system.cpu.decode.RunCycles                    267172                       # Number of cycles decode is running
system.cpu.decode.SquashCycles                   7764                       # Number of cycles decode is squashing
system.cpu.decode.SquashedInsts                 14556                       # Number of squashed instructions handled by decode
system.cpu.decode.UnblockCycles                 17759                       # Number of cycles decode is unblocking
system.cpu.dtb.accesses                             0                       # DTB accesses
system.cpu.dtb.align_faults                         0                       # Number of TLB faults due to alignment restrictions
system.cpu.dtb.domain_faults                        0                       # Number of TLB faults due to domain restrictions
system.cpu.dtb.flush_entries                        0                       # Number of entries that have been flushed from TLB
system.cpu.dtb.flush_tlb                            0                       # Number of times complete TLB was flushed
system.cpu.dtb.flush_tlb_asid                       0                       # Number of times TLB was flushed by ASID
system.cpu.dtb.flush_tlb_mva                        0                       # Number of times TLB was flushed by MVA
system.cpu.dtb.flush_tlb_mva_asid                   0                       # Number of times TLB was flushed by MVA & ASID
system.cpu.dtb.hits                                 0                       # DTB hits
system.cpu.dtb.inst_accesses                        0                       # ITB inst accesses
system.cpu.dtb.inst_hits                            0                       # ITB inst hits
system.cpu.dtb.inst_misses                          0                       # ITB inst misses
system.cpu.dtb.misses                               0                       # DTB misses
system.cpu.dtb.perms_faults                         0                       # Number of TLB faults due to permissions restrictions
system.cpu.dtb.prefetch_faults                      0                       # Number of TLB faults due to prefetch
system.cpu.dtb.read_accesses                        0                       # DTB read accesses
system.cpu.dtb.read_hits                            0                       # DTB read hits
system.cpu.dtb.read_misses                          0                       # DTB read misses
system.cpu.dtb.stage2_mmu.stage2_tlb.accesses            0                       # DTB accesses
system.cpu.dtb.stage2_mmu.stage2_tlb.align_faults            0                       # Number of TLB faults due to alignment restrictions
system.cpu.dtb.stage2_mmu.stage2_tlb.domain_faults            0                       # Number of TLB faults due to domain restrictions
system.cpu.dtb.stage2_mmu.stage2_tlb.flush_entries            0                       # Number of entries that have been flushed from TLB
system.cpu.dtb.stage2_mmu.stage2_tlb.flush_tlb            0                       # Number of times complete TLB was flushed
system.cpu.dtb.stage2_mmu.stage2_tlb.flush_tlb_asid            0                       # Number of times TLB was flushed by ASID
system.cpu.dtb.stage2_mmu.stage2_tlb.flush_tlb_mva            0                       # Number of times TLB was flushed by MVA
system.cpu.dtb.stage2_mmu.stage2_tlb.flush_tlb_mva_asid            0                       # Number of times TLB was flushed by MVA & ASID
system.cpu.dtb.stage2_mmu.stage2_tlb.hits            0                       # DTB hits
system.cpu.dtb.stage2_mmu.stage2_tlb.inst_accesses            0                       # ITB inst accesses
system.cpu.dtb.stage2_mmu.stage2_tlb.inst_hits            0                       # ITB inst hits
system.cpu.dtb.stage2_mmu.stage2_tlb.inst_misses            0                       # ITB inst misses
system.cpu.dtb.stage2_mmu.stage2_tlb.misses            0                       # DTB misses
system.cpu.dtb.stage2_mmu.stage2_tlb.perms_faults            0                       # Number of TLB faults due to permissions restrictions
system.cpu.dtb.stage2_mmu.stage2_tlb.prefetch_faults            0                       # Number of TLB faults due to prefetch
system.cpu.dtb.stage2_mmu.stage2_tlb.read_accesses            0                       # DTB read accesses
system.cpu.dtb.stage2_mmu.stage2_tlb.read_hits            0                       # DTB read hits
system.cpu.dtb.stage2_mmu.stage2_tlb.read_misses            0                       # DTB read misses
system.cpu.dtb.stage2_mmu.stage2_tlb.walker.walkRequestOrigin_Requested::Data            0                       # Table walker requests started/completed, data/inst
system.cpu.dtb.stage2_mmu.stage2_tlb.walker.walkRequestOrigin_Requested::Inst            0                       # Table walker requests started/completed, data/inst
system.cpu.dtb.stage2_mmu.stage2_tlb.walker.walkRequestOrigin_Requested::total            0                       # Table walker requests started/completed, data/inst
system.cpu.dtb.stage2_mmu.stage2_tlb.walker.walkRequestOrigin_Completed::Data            0                       # Table walker requests started/completed, data/inst
system.cpu.dtb.stage2_mmu.stage2_tlb.walker.walkRequestOrigin_Completed::Inst            0                       # Table walker requests started/completed, data/inst
system.cpu.dtb.stage2_mmu.stage2_tlb.walker.walkRequestOrigin_Completed::total            0                       # Table walker requests started/completed, data/inst
system.cpu.dtb.stage2_mmu.stage2_tlb.walker.walkRequestOrigin::total            0                       # Table walker requests started/completed, data/inst
system.cpu.dtb.stage2_mmu.stage2_tlb.walker.walks            0                       # Table walker walks requested
system.cpu.dtb.stage2_mmu.stage2_tlb.write_accesses            0                       # DTB write accesses
system.cpu.dtb.stage2_mmu.stage2_tlb.write_hits            0                       # DTB write hits
system.cpu.dtb.stage2_mmu.stage2_tlb.write_misses            0                       # DTB write misses
system.cpu.dtb.walker.walkRequestOrigin_Requested::Data            0                       # Table walker requests started/completed, data/inst
system.cpu.dtb.walker.walkRequestOrigin_Requested::Inst            0                       # Table walker requests started/completed, data/inst
system.cpu.dtb.walker.walkRequestOrigin_Requested::total            0                       # Table walker requests started/completed, data/inst
system.cpu.dtb.walker.walkRequestOrigin_Completed::Data            0                       # Table walker requests started/completed, data/inst
system.cpu.dtb.walker.walkRequestOrigin_Completed::Inst            0                       # Table walker requests started/completed, data/inst
system.cpu.dtb.walker.walkRequestOrigin_Completed::total            0                       # Table walker requests started/completed, data/inst
system.cpu.dtb.walker.walkRequestOrigin::total            0                       # Table walker requests started/completed, data/inst
system.cpu.dtb.walker.walks                         0                       # Table walker walks requested
system.cpu.dtb.write_accesses                       0                       # DTB write accesses
system.cpu.dtb.write_hits                           0                       # DTB write hits
system.cpu.dtb.write_misses                         0                       # DTB write misses
system.cpu.fetch.Branches                      270747                       # Number of branches that fetch encountered
system.cpu.fetch.CacheLines                    216014                       # Number of cache lines fetched
system.cpu.fetch.Cycles                        628921                       # Number of cycles fetch has run and was not squashing or blocked
system.cpu.fetch.IcacheSquashes                  6122                       # Number of outstanding Icache misses that were squashed
system.cpu.fetch.IcacheWaitRetryStallCycles           70                       # Number of stall cycles due to full MSHR
system.cpu.fetch.Insts                        1232488                       # Number of instructions fetch has processed
system.cpu.fetch.MiscStallCycles                  260                       # Number of cycles fetch has spent waiting on interrupts, or bad addresses, or out of MSHRs
system.cpu.fetch.PendingTrapStallCycles           159                       # Number of stall cycles due to pending traps
system.cpu.fetch.SquashCycles                   22868                       # Number of cycles fetch has spent squashing
system.cpu.fetch.branchRate                  0.219951                       # Number of branch fetches per cycle
system.cpu.fetch.icacheStallCycles             350275                       # Number of cycles fetch is stalled on an Icache miss
system.cpu.fetch.predictedBranches             145459                       # Number of branches that fetch has predicted taken
system.cpu.fetch.rate                        1.001256                       # Number of inst fetches per cycle
system.cpu.fetch.rateDist::samples             991119                       # Number of instructions fetched each cycle (Total)
system.cpu.fetch.rateDist::mean              1.504819                       # Number of instructions fetched each cycle (Total)
system.cpu.fetch.rateDist::stdev             2.712034                       # Number of instructions fetched each cycle (Total)
system.cpu.fetch.rateDist::underflows               0      0.00%      0.00% # Number of instructions fetched each cycle (Total)
system.cpu.fetch.rateDist::0                   663391     66.93%     66.93% # Number of instructions fetched each cycle (Total)
system.cpu.fetch.rateDist::1                    84437      8.52%     75.45% # Number of instructions fetched each cycle (Total)
system.cpu.fetch.rateDist::2                    33735      3.40%     78.86% # Number of instructions fetched each cycle (Total)
system.cpu.fetch.rateDist::3                    25268      2.55%     81.41% # Number of instructions fetched each cycle (Total)
system.cpu.fetch.rateDist::4                    23784      2.40%     83.81% # Number of instructions fetched each cycle (Total)
system.cpu.fetch.rateDist::5                    22650      2.29%     86.09% # Number of instructions fetched each cycle (Total)
system.cpu.fetch.rateDist::6                    15020      1.52%     87.61% # Number of instructions fetched each cycle (Total)
system.cpu.fetch.rateDist::7                    17434      1.76%     89.37% # Number of instructions fetched each cycle (Total)
system.cpu.fetch.rateDist::8                   105400     10.63%    100.00% # Number of instructions fetched each cycle (Total)
system.cpu.fetch.rateDist::overflows                0      0.00%    100.00% # Number of instructions fetched each cycle (Total)
system.cpu.fetch.rateDist::min_value                0                       # Number of instructions fetched each cycle (Total)
system.cpu.fetch.rateDist::max_value                8                       # Number of instructions fetched each cycle (Total)
system.cpu.fetch.rateDist::total               991119                       # Number of instructions fetched each cycle (Total)
system.cpu.icache.prefetcher.num_hwpf_issued        13122                       # number of hwpf issued
system.cpu.icache.prefetcher.pfBufferHit          304                       # number of redundant prefetches already in prefetch queue
system.cpu.icache.prefetcher.pfIdentified        13778                       # number of prefetch candidates identified
system.cpu.icache.prefetcher.pfInCache              0                       # number of redundant prefetches already in cache/mshr dropped
system.cpu.icache.prefetcher.pfRemovedFull            0                       # number of prefetches dropped due to prefetch queue size
system.cpu.icache.prefetcher.pfSpanPage         13630                       # number of prefetches that crossed the page
system.cpu.idleCycles                          239823                       # Total number of cycles that the CPU has spent unscheduled due to idling
system.cpu.iew.branchMispredicts                 9173                       # Number of branch mispredicts detected at execute
system.cpu.iew.exec_branches                   235191                       # Number of branches executed
system.cpu.iew.exec_nop                          2100                       # number of nop insts executed
system.cpu.iew.exec_rate                     1.076434                       # Inst execution rate
system.cpu.iew.exec_refs                       413639                       # number of memory reference insts executed
system.cpu.iew.exec_stores                     211723                       # Number of stores executed
system.cpu.iew.exec_swp                             0                       # number of swp insts executed
system.cpu.iew.iewBlockCycles                   21218                       # Number of cycles IEW is blocking
system.cpu.iew.iewDispLoadInsts                198470                       # Number of dispatched load instructions
system.cpu.iew.iewDispNonSpecInsts                630                       # Number of dispatched non-speculative instructions
system.cpu.iew.iewDispSquashedInsts              3458                       # Number of squashed instructions skipped by dispatch
system.cpu.iew.iewDispStoreInsts               220505                       # Number of dispatched store instructions
system.cpu.iew.iewDispatchedInsts             1367472                       # Number of instructions dispatched to IQ
system.cpu.iew.iewExecLoadInsts                201916                       # Number of load instructions executed
system.cpu.iew.iewExecSquashedInsts             12554                       # Number of squashed instructions skipped in execute
system.cpu.iew.iewExecutedInsts               1325028                       # Number of executed instructions
system.cpu.iew.iewIQFullEvents                     67                       # Number of times the IQ has become full, causing a stall
system.cpu.iew.iewIdleCycles                        0                       # Number of cycles IEW is idle
system.cpu.iew.iewLSQFullEvents                 47014                       # Number of times the LSQ has become full, causing a stall
system.cpu.iew.iewSquashCycles                   7764                       # Number of cycles IEW is squashing
system.cpu.iew.iewUnblockCycles                 47108                       # Number of cycles IEW is unblocking
system.cpu.iew.lsq.thread0.blockedLoads             0                       # Number of blocked loads due to partial load-store forwarding
system.cpu.iew.lsq.thread0.cacheBlocked           738                       # Number of times an access to memory failed due to the cache being blocked
system.cpu.iew.lsq.thread0.forwLoads             4007                       # Number of loads that had data forwarded from stores
system.cpu.iew.lsq.thread0.ignoredResponses           21                       # Number of memory responses ignored because the instruction is squashed
system.cpu.iew.lsq.thread0.invAddrLoads             0                       # Number of loads ignored due to an invalid address
system.cpu.iew.lsq.thread0.invAddrSwpfs             0                       # Number of software prefetches ignored due to an invalid address
system.cpu.iew.lsq.thread0.memOrderViolation          112                       # Number of memory ordering violations
system.cpu.iew.lsq.thread0.rescheduledLoads        11151                       # Number of loads that were rescheduled
system.cpu.iew.lsq.thread0.squashedLoads        26068                       # Number of loads squashed
system.cpu.iew.lsq.thread0.squashedStores        19383                       # Number of stores squashed
system.cpu.iew.memOrderViolationEvents            112                       # Number of memory order violations
system.cpu.iew.predictedNotTakenIncorrect         6263                       # Number of branches that were predicted not taken incorrectly
system.cpu.iew.predictedTakenIncorrect           2910                       # Number of branches that were predicted taken incorrectly
system.cpu.iew.wb_consumers                   1201029                       # num instructions consuming a value
system.cpu.iew.wb_count                       1303067                       # cumulative count of insts written-back
system.cpu.iew.wb_fanout                     0.536702                       # average fanout of values written-back
system.cpu.iew.wb_producers                    644595                       # num instructions producing a value
system.cpu.iew.wb_rate                       1.058593                       # insts written-back per cycle
system.cpu.iew.wb_sent                        1307996                       # cumulative count of insts sent to commit
system.cpu.int_regfile_reads                  1626780                       # number of integer regfile reads
system.cpu.int_regfile_writes                  890301                       # number of integer regfile writes
system.cpu.ipc                               0.812388                       # IPC: Instructions Per Cycle
system.cpu.ipc_total                         0.812388                       # IPC: Total IPC of All Threads
system.cpu.iq.FU_type_0::No_OpClass                33      0.00%      0.00% # Type of FU issued
system.cpu.iq.FU_type_0::IntAlu                917296     68.58%     68.58% # Type of FU issued
system.cpu.iq.FU_type_0::IntMult                 1337      0.10%     68.68% # Type of FU issued
system.cpu.iq.FU_type_0::IntDiv                   130      0.01%     68.69% # Type of FU issued
system.cpu.iq.FU_type_0::FloatAdd                   0      0.00%     68.69% # Type of FU issued
system.cpu.iq.FU_type_0::FloatCmp                   1      0.00%     68.69% # Type of FU issued
system.cpu.iq.FU_type_0::FloatCvt                   6      0.00%     68.69% # Type of FU issued
system.cpu.iq.FU_type_0::FloatMult                  6      0.00%     68.69% # Type of FU issued
system.cpu.iq.FU_type_0::FloatMultAcc               0      0.00%     68.69% # Type of FU issued
system.cpu.iq.FU_type_0::FloatDiv                   0      0.00%     68.69% # Type of FU issued
system.cpu.iq.FU_type_0::FloatMisc                  6      0.00%     68.69% # Type of FU issued
system.cpu.iq.FU_type_0::FloatSqrt                  2      0.00%     68.69% # Type of FU issued
system.cpu.iq.FU_type_0::SimdAdd                   31      0.00%     68.69% # Type of FU issued
system.cpu.iq.FU_type_0::SimdAddAcc                 0      0.00%     68.69% # Type of FU issued
system.cpu.iq.FU_type_0::SimdAlu                   28      0.00%     68.70% # Type of FU issued
system.cpu.iq.FU_type_0::SimdCmp                   28      0.00%     68.70% # Type of FU issued
system.cpu.iq.FU_type_0::SimdCvt                    0      0.00%     68.70% # Type of FU issued
system.cpu.iq.FU_type_0::SimdMisc                  71      0.01%     68.70% # Type of FU issued
system.cpu.iq.FU_type_0::SimdMult                   0      0.00%     68.70% # Type of FU issued
system.cpu.iq.FU_type_0::SimdMultAcc                0      0.00%     68.70% # Type of FU issued
system.cpu.iq.FU_type_0::SimdShift                  0      0.00%     68.70% # Type of FU issued
system.cpu.iq.FU_type_0::SimdShiftAcc               0      0.00%     68.70% # Type of FU issued
system.cpu.iq.FU_type_0::SimdDiv                    0      0.00%     68.70% # Type of FU issued
system.cpu.iq.FU_type_0::SimdSqrt                   0      0.00%     68.70% # Type of FU issued
system.cpu.iq.FU_type_0::SimdFloatAdd               0      0.00%     68.70% # Type of FU issued
system.cpu.iq.FU_type_0::SimdFloatAlu               0      0.00%     68.70% # Type of FU issued
system.cpu.iq.FU_type_0::SimdFloatCmp               0      0.00%     68.70% # Type of FU issued
system.cpu.iq.FU_type_0::SimdFloatCvt               0      0.00%     68.70% # Type of FU issued
system.cpu.iq.FU_type_0::SimdFloatDiv               0      0.00%     68.70% # Type of FU issued
system.cpu.iq.FU_type_0::SimdFloatMisc              0      0.00%     68.70% # Type of FU issued
system.cpu.iq.FU_type_0::SimdFloatMult              0      0.00%     68.70% # Type of FU issued
system.cpu.iq.FU_type_0::SimdFloatMultAcc            0      0.00%     68.70% # Type of FU issued
system.cpu.iq.FU_type_0::SimdFloatSqrt              0      0.00%     68.70% # Type of FU issued
system.cpu.iq.FU_type_0::SimdReduceAdd              0      0.00%     68.70% # Type of FU issued
system.cpu.iq.FU_type_0::SimdReduceAlu              0      0.00%     68.70% # Type of FU issued
system.cpu.iq.FU_type_0::SimdReduceCmp              0      0.00%     68.70% # Type of FU issued
system.cpu.iq.FU_type_0::SimdFloatReduceAdd            0      0.00%     68.70% # Type of FU issued
system.cpu.iq.FU_type_0::SimdFloatReduceCmp            0      0.00%     68.70% # Type of FU issued
system.cpu.iq.FU_type_0::SimdAes                    0      0.00%     68.70% # Type of FU issued
system.cpu.iq.FU_type_0::SimdAesMix                 0      0.00%     68.70% # Type of FU issued
system.cpu.iq.FU_type_0::SimdSha1Hash               0      0.00%     68.70% # Type of FU issued
system.cpu.iq.FU_type_0::SimdSha1Hash2              0      0.00%     68.70% # Type of FU issued
system.cpu.iq.FU_type_0::SimdSha256Hash             0      0.00%     68.70% # Type of FU issued
system.cpu.iq.FU_type_0::SimdSha256Hash2            0      0.00%     68.70% # Type of FU issued
system.cpu.iq.FU_type_0::SimdShaSigma2              0      0.00%     68.70% # Type of FU issued
system.cpu.iq.FU_type_0::SimdShaSigma3              0      0.00%     68.70% # Type of FU issued
system.cpu.iq.FU_type_0::SimdPredAlu                0      0.00%     68.70% # Type of FU issued
system.cpu.iq.FU_type_0::MemRead               204721     15.31%     84.01% # Type of FU issued
system.cpu.iq.FU_type_0::MemWrite              213887     15.99%    100.00% # Type of FU issued
system.cpu.iq.FU_type_0::FloatMemRead               0      0.00%    100.00% # Type of FU issued
system.cpu.iq.FU_type_0::FloatMemWrite              0      0.00%    100.00% # Type of FU issued
system.cpu.iq.FU_type_0::IprAccess                  0      0.00%    100.00% # Type of FU issued
system.cpu.iq.FU_type_0::InstPrefetch               0      0.00%    100.00% # Type of FU issued
system.cpu.iq.FU_type_0::total                1337583                       # Type of FU issued
system.cpu.iq.fp_alu_accesses                       0                       # Number of floating point alu accesses
system.cpu.iq.fp_inst_queue_reads                   0                       # Number of floating instruction queue reads
system.cpu.iq.fp_inst_queue_wakeup_accesses            0                       # Number of floating instruction queue wakeup accesses
system.cpu.iq.fp_inst_queue_writes                  0                       # Number of floating instruction queue writes
system.cpu.iq.fu_busy_cnt                       11921                       # FU busy when requested
system.cpu.iq.fu_busy_rate                   0.008912                       # FU busy rate (busy events/executed inst)
system.cpu.iq.fu_full::No_OpClass                   0      0.00%      0.00% # attempts to use FU when none available
system.cpu.iq.fu_full::IntAlu                    3708     31.10%     31.10% # attempts to use FU when none available
system.cpu.iq.fu_full::IntMult                      0      0.00%     31.10% # attempts to use FU when none available
system.cpu.iq.fu_full::IntDiv                       0      0.00%     31.10% # attempts to use FU when none available
system.cpu.iq.fu_full::FloatAdd                     0      0.00%     31.10% # attempts to use FU when none available
system.cpu.iq.fu_full::FloatCmp                     0      0.00%     31.10% # attempts to use FU when none available
system.cpu.iq.fu_full::FloatCvt                     0      0.00%     31.10% # attempts to use FU when none available
system.cpu.iq.fu_full::FloatMult                    0      0.00%     31.10% # attempts to use FU when none available
system.cpu.iq.fu_full::FloatMultAcc                 0      0.00%     31.10% # attempts to use FU when none available
system.cpu.iq.fu_full::FloatDiv                     0      0.00%     31.10% # attempts to use FU when none available
system.cpu.iq.fu_full::FloatMisc                    0      0.00%     31.10% # attempts to use FU when none available
system.cpu.iq.fu_full::FloatSqrt                    0      0.00%     31.10% # attempts to use FU when none available
system.cpu.iq.fu_full::SimdAdd                      0      0.00%     31.10% # attempts to use FU when none available
system.cpu.iq.fu_full::SimdAddAcc                   0      0.00%     31.10% # attempts to use FU when none available
system.cpu.iq.fu_full::SimdAlu                      1      0.01%     31.11% # attempts to use FU when none available
system.cpu.iq.fu_full::SimdCmp                      2      0.02%     31.13% # attempts to use FU when none available
system.cpu.iq.fu_full::SimdCvt                      0      0.00%     31.13% # attempts to use FU when none available
system.cpu.iq.fu_full::SimdMisc                     0      0.00%     31.13% # attempts to use FU when none available
system.cpu.iq.fu_full::SimdMult                     0      0.00%     31.13% # attempts to use FU when none available
system.cpu.iq.fu_full::SimdMultAcc                  0      0.00%     31.13% # attempts to use FU when none available
system.cpu.iq.fu_full::SimdShift                    0      0.00%     31.13% # attempts to use FU when none available
system.cpu.iq.fu_full::SimdShiftAcc                 0      0.00%     31.13% # attempts to use FU when none available
system.cpu.iq.fu_full::SimdDiv                      0      0.00%     31.13% # attempts to use FU when none available
system.cpu.iq.fu_full::SimdSqrt                     0      0.00%     31.13% # attempts to use FU when none available
system.cpu.iq.fu_full::SimdFloatAdd                 0      0.00%     31.13% # attempts to use FU when none available
system.cpu.iq.fu_full::SimdFloatAlu                 0      0.00%     31.13% # attempts to use FU when none available
system.cpu.iq.fu_full::SimdFloatCmp                 0      0.00%     31.13% # attempts to use FU when none available
system.cpu.iq.fu_full::SimdFloatCvt                 0      0.00%     31.13% # attempts to use FU when none available
system.cpu.iq.fu_full::SimdFloatDiv                 0      0.00%     31.13% # attempts to use FU when none available
system.cpu.iq.fu_full::SimdFloatMisc                0      0.00%     31.13% # attempts to use FU when none available
system.cpu.iq.fu_full::SimdFloatMult                0      0.00%     31.13% # attempts to use FU when none available
system.cpu.iq.fu_full::SimdFloatMultAcc             0      0.00%     31.13% # attempts to use FU when none available
system.cpu.iq.fu_full::SimdFloatSqrt                0      0.00%     31.13% # attempts to use FU when none available
system.cpu.iq.fu_full::SimdReduceAdd                0      0.00%     31.13% # attempts to use FU when none available
system.cpu.iq.fu_full::SimdReduceAlu                0      0.00%     31.13% # attempts to use FU when none available
system.cpu.iq.fu_full::SimdReduceCmp                0      0.00%     31.13% # attempts to use FU when none available
system.cpu.iq.fu_full::SimdFloatReduceAdd            0      0.00%     31.13% # attempts to use FU when none available
system.cpu.iq.fu_full::SimdFloatReduceCmp            0      0.00%     31.13% # attempts to use FU when none available
system.cpu.iq.fu_full::SimdAes                      0      0.00%     31.13% # attempts to use FU when none available
system.cpu.iq.fu_full::SimdAesMix                   0      0.00%     31.13% # attempts to use FU when none available
system.cpu.iq.fu_full::SimdSha1Hash                 0      0.00%     31.13% # attempts to use FU when none available
system.cpu.iq.fu_full::SimdSha1Hash2                0      0.00%     31.13% # attempts to use FU when none available
system.cpu.iq.fu_full::SimdSha256Hash               0      0.00%     31.13% # attempts to use FU when none available
system.cpu.iq.fu_full::SimdSha256Hash2              0      0.00%     31.13% # attempts to use FU when none available
system.cpu.iq.fu_full::SimdShaSigma2                0      0.00%     31.13% # attempts to use FU when none available
system.cpu.iq.fu_full::SimdShaSigma3                0      0.00%     31.13% # attempts to use FU when none available
system.cpu.iq.fu_full::SimdPredAlu                  0      0.00%     31.13% # attempts to use FU when none available
system.cpu.iq.fu_full::MemRead                   4415     37.04%     68.17% # attempts to use FU when none available
system.cpu.iq.fu_full::MemWrite                  3795     31.83%    100.00% # attempts to use FU when none available
system.cpu.iq.fu_full::FloatMemRead                 0      0.00%    100.00% # attempts to use FU when none available
system.cpu.iq.fu_full::FloatMemWrite                0      0.00%    100.00% # attempts to use FU when none available
system.cpu.iq.fu_full::IprAccess                    0      0.00%    100.00% # attempts to use FU when none available
system.cpu.iq.fu_full::InstPrefetch                 0      0.00%    100.00% # attempts to use FU when none available
system.cpu.iq.int_alu_accesses                1347730                       # Number of integer alu accesses
system.cpu.iq.int_inst_queue_reads            3675890                       # Number of integer instruction queue reads
system.cpu.iq.int_inst_queue_wakeup_accesses      1301676                       # Number of integer instruction queue wakeup accesses
system.cpu.iq.int_inst_queue_writes           1509514                       # Number of integer instruction queue writes
system.cpu.iq.iqInstsAdded                    1364742                       # Number of instructions added to the IQ (excludes non-spec)
system.cpu.iq.iqInstsIssued                   1337583                       # Number of instructions issued
system.cpu.iq.iqNonSpecInstsAdded                 630                       # Number of non-speculative instructions added to the IQ
system.cpu.iq.iqSquashedInstsExamined          146816                       # Number of squashed instructions iterated over during squash; mainly for profiling
system.cpu.iq.iqSquashedInstsIssued              1198                       # Number of squashed instructions issued
system.cpu.iq.iqSquashedNonSpecRemoved             68                       # Number of squashed non-spec instructions that were removed
system.cpu.iq.iqSquashedOperandsExamined        88911                       # Number of squashed operands that are examined and possibly removed from graph
system.cpu.iq.issued_per_cycle::samples        991119                       # Number of insts issued each cycle
system.cpu.iq.issued_per_cycle::mean         1.349569                       # Number of insts issued each cycle
system.cpu.iq.issued_per_cycle::stdev        2.022099                       # Number of insts issued each cycle
system.cpu.iq.issued_per_cycle::underflows            0      0.00%      0.00% # Number of insts issued each cycle
system.cpu.iq.issued_per_cycle::0              560082     56.51%     56.51% # Number of insts issued each cycle
system.cpu.iq.issued_per_cycle::1              124925     12.60%     69.11% # Number of insts issued each cycle
system.cpu.iq.issued_per_cycle::2               83494      8.42%     77.54% # Number of insts issued each cycle
system.cpu.iq.issued_per_cycle::3               61712      6.23%     83.77% # Number of insts issued each cycle
system.cpu.iq.issued_per_cycle::4               51979      5.24%     89.01% # Number of insts issued each cycle
system.cpu.iq.issued_per_cycle::5               39564      3.99%     93.00% # Number of insts issued each cycle
system.cpu.iq.issued_per_cycle::6               42505      4.29%     97.29% # Number of insts issued each cycle
system.cpu.iq.issued_per_cycle::7               15096      1.52%     98.81% # Number of insts issued each cycle
system.cpu.iq.issued_per_cycle::8               11762      1.19%    100.00% # Number of insts issued each cycle
system.cpu.iq.issued_per_cycle::overflows            0      0.00%    100.00% # Number of insts issued each cycle
system.cpu.iq.issued_per_cycle::min_value            0                       # Number of insts issued each cycle
system.cpu.iq.issued_per_cycle::max_value            8                       # Number of insts issued each cycle
system.cpu.iq.issued_per_cycle::total          991119                       # Number of insts issued each cycle
system.cpu.iq.rate                           1.086634                       # Inst issue rate
system.cpu.iq.vec_alu_accesses                   1741                       # Number of vector alu accesses
system.cpu.iq.vec_inst_queue_reads               3513                       # Number of vector instruction queue reads
system.cpu.iq.vec_inst_queue_wakeup_accesses         1391                       # Number of vector instruction queue wakeup accesses
system.cpu.iq.vec_inst_queue_writes              2780                       # Number of vector instruction queue writes
system.cpu.itb.accesses                             0                       # DTB accesses
system.cpu.itb.align_faults                         0                       # Number of TLB faults due to alignment restrictions
system.cpu.itb.domain_faults                        0                       # Number of TLB faults due to domain restrictions
system.cpu.itb.flush_entries                        0                       # Number of entries that have been flushed from TLB
system.cpu.itb.flush_tlb                            0                       # Number of times complete TLB was flushed
system.cpu.itb.flush_tlb_asid                       0                       # Number of times TLB was flushed by ASID
system.cpu.itb.flush_tlb_mva                        0                       # Number of times TLB was flushed by MVA
system.cpu.itb.flush_tlb_mva_asid                   0                       # Number of times TLB was flushed by MVA & ASID
system.cpu.itb.hits                                 0                       # DTB hits
system.cpu.itb.inst_accesses                        0                       # ITB inst accesses
system.cpu.itb.inst_hits                            0                       # ITB inst hits
system.cpu.itb.inst_misses                          0                       # ITB inst misses
system.cpu.itb.misses                               0                       # DTB misses
system.cpu.itb.perms_faults                         0                       # Number of TLB faults due to permissions restrictions
system.cpu.itb.prefetch_faults                      0                       # Number of TLB faults due to prefetch
system.cpu.itb.read_accesses                        0                       # DTB read accesses
system.cpu.itb.read_hits                            0                       # DTB read hits
system.cpu.itb.read_misses                          0                       # DTB read misses
system.cpu.itb.stage2_mmu.stage2_tlb.accesses            0                       # DTB accesses
system.cpu.itb.stage2_mmu.stage2_tlb.align_faults            0                       # Number of TLB faults due to alignment restrictions
system.cpu.itb.stage2_mmu.stage2_tlb.domain_faults            0                       # Number of TLB faults due to domain restrictions
system.cpu.itb.stage2_mmu.stage2_tlb.flush_entries            0                       # Number of entries that have been flushed from TLB
system.cpu.itb.stage2_mmu.stage2_tlb.flush_tlb            0                       # Number of times complete TLB was flushed
system.cpu.itb.stage2_mmu.stage2_tlb.flush_tlb_asid            0                       # Number of times TLB was flushed by ASID
system.cpu.itb.stage2_mmu.stage2_tlb.flush_tlb_mva            0                       # Number of times TLB was flushed by MVA
system.cpu.itb.stage2_mmu.stage2_tlb.flush_tlb_mva_asid            0                       # Number of times TLB was flushed by MVA & ASID
system.cpu.itb.stage2_mmu.stage2_tlb.hits            0                       # DTB hits
system.cpu.itb.stage2_mmu.stage2_tlb.inst_accesses            0                       # ITB inst accesses
system.cpu.itb.stage2_mmu.stage2_tlb.inst_hits            0                       # ITB inst hits
system.cpu.itb.stage2_mmu.stage2_tlb.inst_misses            0                       # ITB inst misses
system.cpu.itb.stage2_mmu.stage2_tlb.misses            0                       # DTB misses
system.cpu.itb.stage2_mmu.stage2_tlb.perms_faults            0                       # Number of TLB faults due to permissions restrictions
system.cpu.itb.stage2_mmu.stage2_tlb.prefetch_faults            0                       # Number of TLB faults due to prefetch
system.cpu.itb.stage2_mmu.stage2_tlb.read_accesses            0                       # DTB read accesses
system.cpu.itb.stage2_mmu.stage2_tlb.read_hits            0                       # DTB read hits
system.cpu.itb.stage2_mmu.stage2_tlb.read_misses            0                       # DTB read misses
system.cpu.itb.stage2_mmu.stage2_tlb.walker.walkRequestOrigin_Requested::Data            0                       # Table walker requests started/completed, data/inst
system.cpu.itb.stage2_mmu.stage2_tlb.walker.walkRequestOrigin_Requested::Inst            0                       # Table walker requests started/completed, data/inst
system.cpu.itb.stage2_mmu.stage2_tlb.walker.walkRequestOrigin_Requested::total            0                       # Table walker requests started/completed, data/inst
system.cpu.itb.stage2_mmu.stage2_tlb.walker.walkRequestOrigin_Completed::Data            0                       # Table walker requests started/completed, data/inst
system.cpu.itb.stage2_mmu.stage2_tlb.walker.walkRequestOrigin_Completed::Inst            0                       # Table walker requests started/completed, data/inst
system.cpu.itb.stage2_mmu.stage2_tlb.walker.walkRequestOrigin_Completed::total            0                       # Table walker requests started/completed, data/inst
system.cpu.itb.stage2_mmu.stage2_tlb.walker.walkRequestOrigin::total            0                       # Table walker requests started/completed, data/inst
system.cpu.itb.stage2_mmu.stage2_tlb.walker.walks            0                       # Table walker walks requested
system.cpu.itb.stage2_mmu.stage2_tlb.write_accesses            0                       # DTB write accesses
system.cpu.itb.stage2_mmu.stage2_tlb.write_hits            0                       # DTB write hits
system.cpu.itb.stage2_mmu.stage2_tlb.write_misses            0                       # DTB write misses
system.cpu.itb.walker.walkRequestOrigin_Requested::Data            0                       # Table walker requests started/completed, data/inst
system.cpu.itb.walker.walkRequestOrigin_Requested::Inst            0                       # Table walker requests started/completed, data/inst
system.cpu.itb.walker.walkRequestOrigin_Requested::total            0                       # Table walker requests started/completed, data/inst
system.cpu.itb.walker.walkRequestOrigin_Completed::Data            0                       # Table walker requests started/completed, data/inst
system.cpu.itb.walker.walkRequestOrigin_Completed::Inst            0                       # Table walker requests started/completed, data/inst
system.cpu.itb.walker.walkRequestOrigin_Completed::total            0                       # Table walker requests started/completed, data/inst
system.cpu.itb.walker.walkRequestOrigin::total            0                       # Table walker requests started/completed, data/inst
system.cpu.itb.walker.walks                         0                       # Table walker walks requested
system.cpu.itb.write_accesses                       0                       # DTB write accesses
system.cpu.itb.write_hits                           0                       # DTB write hits
system.cpu.itb.write_misses                         0                       # DTB write misses
system.cpu.memDep0.conflictingLoads              9515                       # Number of conflicting loads.
system.cpu.memDep0.conflictingStores            12379                       # Number of conflicting stores.
system.cpu.memDep0.insertedLoads               198470                       # Number of loads inserted to the mem dependence unit.
system.cpu.memDep0.insertedStores              220505                       # Number of stores inserted to the mem dependence unit.
system.cpu.misc_regfile_reads                  937906                       # number of misc regfile reads
system.cpu.misc_regfile_writes                   2172                       # number of misc regfile writes
system.cpu.numCycles                          1230942                       # number of cpu cycles simulated
system.cpu.numWorkItemsCompleted                    0                       # number of work items this cpu completed
system.cpu.numWorkItemsStarted                      0                       # number of work items this cpu started
system.cpu.rename.BlockCycles                   72980                       # Number of cycles rename is blocking
system.cpu.rename.CommittedMaps               1231019                       # Number of HB maps that are committed
system.cpu.rename.IQFullEvents                   6701                       # Number of times rename has blocked due to IQ full
system.cpu.rename.IdleCycles                   295563                       # Number of cycles rename is idle
system.cpu.rename.LQFullEvents                   2731                       # Number of times rename has blocked due to LQ full
system.cpu.rename.ROBFullEvents                   162                       # Number of times rename has blocked due to ROB full
system.cpu.rename.RenameLookups               2199248                       # Number of register rename lookups that rename has made
system.cpu.rename.RenamedInsts                1399904                       # Number of instructions processed by rename
system.cpu.rename.RenamedOperands             1402880                       # Number of destination operands rename has renamed
system.cpu.rename.RunCycles                    271288                       # Number of cycles rename is running
system.cpu.rename.SQFullEvents                 151517                       # Number of times rename has blocked due to SQ full
system.cpu.rename.SquashCycles                   7764                       # Number of cycles rename is squashing
system.cpu.rename.UnblockCycles                170074                       # Number of cycles rename is unblocking
system.cpu.rename.UndoneMaps                   171742                       # Number of HB maps that are undone due to squashing
system.cpu.rename.int_rename_lookups          1721951                       # Number of integer rename lookups
system.cpu.rename.serializeStallCycles         173450                       # count of cycles rename stalled for serializing inst
system.cpu.rename.serializingInsts               5614                       # count of serializing insts renamed
system.cpu.rename.skidInsts                     86871                       # count of insts added to the skid buffer
system.cpu.rename.tempSerializingInsts            642                       # count of temporary serializing insts renamed
system.cpu.rename.vec_rename_lookups             2053                       # Number of vector rename lookups
system.cpu.rob.rob_reads                      2271997                       # The number of ROB reads
system.cpu.rob.rob_writes                     2754214                       # The number of ROB writes
system.cpu.timesIdled                            4010                       # Number of times that the entire CPU went into an idle state and unscheduled itself
system.cpu.vec_regfile_reads                     1397                       # number of vector regfile reads
system.cpu.vec_regfile_writes                     188                       # number of vector regfile writes
system.cpu.workload.numSyscalls                    19                       # Number of system calls
system.membus.snoop_filter.hit_multi_requests            0                       # Number of requests hitting in the snoop filter with multiple (>1) holders of the requested data.
system.membus.snoop_filter.hit_multi_snoops            0                       # Number of snoops hitting in the snoop filter with multiple (>1) holders of the requested data.
system.membus.snoop_filter.hit_single_requests            0                       # Number of requests hitting in the snoop filter with a single holder of the requested data.
system.membus.snoop_filter.hit_single_snoops            0                       # Number of snoops hitting in the snoop filter with a single holder of the requested data.
system.membus.snoop_filter.tot_requests          7816                       # Total number of requests made to the snoop filter.
system.membus.snoop_filter.tot_snoops               0                       # Total number of snoops made to the snoop filter.
system.tol2bus.snoop_filter.hit_multi_requests            7                       # Number of requests hitting in the snoop filter with multiple (>1) holders of the requested data.
system.tol2bus.snoop_filter.hit_multi_snoops            0                       # Number of snoops hitting in the snoop filter with multiple (>1) holders of the requested data.
system.tol2bus.snoop_filter.hit_single_requests        12344                       # Number of requests hitting in the snoop filter with a single holder of the requested data.
system.tol2bus.snoop_filter.hit_single_snoops            0                       # Number of snoops hitting in the snoop filter with a single holder of the requested data.
system.tol2bus.snoop_filter.tot_requests        25968                       # Total number of requests made to the snoop filter.
system.tol2bus.snoop_filter.tot_snoops              0                       # Total number of snoops made to the snoop filter.
system.membus.trans_dist::ReadResp               4095                       # Transaction distribution
system.membus.trans_dist::ReadExReq              3547                       # Transaction distribution
system.membus.trans_dist::ReadExResp             3547                       # Transaction distribution
system.membus.trans_dist::ReadSharedReq          4095                       # Transaction distribution
system.membus.trans_dist::InvalidateReq           174                       # Transaction distribution
system.membus.pkt_count_system.l2.mem_side::system.mem_ctrls.port        15458                       # Packet count per connected master and slave (bytes)
system.membus.pkt_count::total                  15458                       # Packet count per connected master and slave (bytes)
system.membus.pkt_size_system.l2.mem_side::system.mem_ctrls.port       489088                       # Cumulative packet size per connected master and slave (bytes)
system.membus.pkt_size::total                  489088                       # Cumulative packet size per connected master and slave (bytes)
system.membus.snoops                                0                       # Total snoops (count)
system.membus.snoopTraffic                          0                       # Total snoop traffic (bytes)
system.membus.snoop_fanout::samples              7816                       # Request fanout histogram
system.membus.snoop_fanout::mean                    0                       # Request fanout histogram
system.membus.snoop_fanout::stdev                   0                       # Request fanout histogram
system.membus.snoop_fanout::underflows              0      0.00%      0.00% # Request fanout histogram
system.membus.snoop_fanout::0                    7816    100.00%    100.00% # Request fanout histogram
system.membus.snoop_fanout::1                       0      0.00%    100.00% # Request fanout histogram
system.membus.snoop_fanout::overflows               0      0.00%    100.00% # Request fanout histogram
system.membus.snoop_fanout::min_value               0                       # Request fanout histogram
system.membus.snoop_fanout::max_value               0                       # Request fanout histogram
system.membus.snoop_fanout::total                7816                       # Request fanout histogram
system.membus.reqLayer0.occupancy            10063000                       # Layer occupancy (ticks)
system.membus.reqLayer0.utilization               1.6                       # Layer utilization (%)
system.membus.respLayer1.occupancy           40442500                       # Layer occupancy (ticks)
system.membus.respLayer1.utilization              6.6                       # Layer utilization (%)
system.membus.power_state.pwrStateResidencyTicks::UNDEFINED    615469000                       # Cumulative time (in ticks) in various power states
system.tol2bus.trans_dist::ReadResp              9824                       # Transaction distribution
system.tol2bus.trans_dist::WritebackDirty         3263                       # Transaction distribution
system.tol2bus.trans_dist::WritebackClean         8211                       # Transaction distribution
system.tol2bus.trans_dist::CleanEvict             869                       # Transaction distribution
system.tol2bus.trans_dist::UpgradeReq               1                       # Transaction distribution
system.tol2bus.trans_dist::UpgradeResp              1                       # Transaction distribution
system.tol2bus.trans_dist::ReadExReq             3626                       # Transaction distribution
system.tol2bus.trans_dist::ReadExResp            3625                       # Transaction distribution
system.tol2bus.trans_dist::ReadCleanReq          8467                       # Transaction distribution
system.tol2bus.trans_dist::ReadSharedReq         1357                       # Transaction distribution
system.tol2bus.trans_dist::InvalidateReq          174                       # Transaction distribution
system.tol2bus.trans_dist::InvalidateResp          174                       # Transaction distribution
system.tol2bus.pkt_count_system.cpu.icache.mem_side::system.l2.cpu_side        25144                       # Packet count per connected master and slave (bytes)
system.tol2bus.pkt_count_system.cpu.dcache.mem_side::system.l2.cpu_side        14447                       # Packet count per connected master and slave (bytes)
system.tol2bus.pkt_count::total                 39591                       # Packet count per connected master and slave (bytes)
system.tol2bus.pkt_size_system.cpu.icache.mem_side::system.l2.cpu_side      1067328                       # Cumulative packet size per connected master and slave (bytes)
system.tol2bus.pkt_size_system.cpu.dcache.mem_side::system.l2.cpu_side       527680                       # Cumulative packet size per connected master and slave (bytes)
system.tol2bus.pkt_size::total                1595008                       # Cumulative packet size per connected master and slave (bytes)
system.tol2bus.snoops                               1                       # Total snoops (count)
system.tol2bus.snoopTraffic                        64                       # Total snoop traffic (bytes)
system.tol2bus.snoop_fanout::samples            13625                       # Request fanout histogram
system.tol2bus.snoop_fanout::mean            0.000514                       # Request fanout histogram
system.tol2bus.snoop_fanout::stdev           0.022661                       # Request fanout histogram
system.tol2bus.snoop_fanout::underflows             0      0.00%      0.00% # Request fanout histogram
system.tol2bus.snoop_fanout::0                  13618     99.95%     99.95% # Request fanout histogram
system.tol2bus.snoop_fanout::1                      7      0.05%    100.00% # Request fanout histogram
system.tol2bus.snoop_fanout::2                      0      0.00%    100.00% # Request fanout histogram
system.tol2bus.snoop_fanout::overflows              0      0.00%    100.00% # Request fanout histogram
system.tol2bus.snoop_fanout::min_value              0                       # Request fanout histogram
system.tol2bus.snoop_fanout::max_value              1                       # Request fanout histogram
system.tol2bus.snoop_fanout::total              13625                       # Request fanout histogram
system.tol2bus.reqLayer0.occupancy           25142506                       # Layer occupancy (ticks)
system.tol2bus.reqLayer0.utilization              4.1                       # Layer utilization (%)
system.tol2bus.respLayer1.occupancy           7568484                       # Layer occupancy (ticks)
system.tol2bus.respLayer1.utilization             1.2                       # Layer utilization (%)
system.tol2bus.respLayer0.occupancy          12700999                       # Layer occupancy (ticks)
system.tol2bus.respLayer0.utilization             2.1                       # Layer utilization (%)
system.tol2bus.power_state.pwrStateResidencyTicks::UNDEFINED    615469000                       # Cumulative time (in ticks) in various power states
system.voltage_domain.voltage                       1                       # Voltage in Volts
system.clk_domain.clock                          1000                       # Clock period in ticks
system.l2.demand_hits::.cpu.inst                 3665                       # number of demand (read+write) hits
system.l2.demand_hits::.cpu.data                  384                       # number of demand (read+write) hits
system.l2.demand_hits::.cpu.icache.prefetcher         1757                       # number of demand (read+write) hits
system.l2.demand_hits::total                     5806                       # number of demand (read+write) hits
system.l2.overall_hits::.cpu.inst                3665                       # number of overall hits
system.l2.overall_hits::.cpu.data                 384                       # number of overall hits
system.l2.overall_hits::.cpu.icache.prefetcher         1757                       # number of overall hits
system.l2.overall_hits::total                    5806                       # number of overall hits
system.l2.demand_misses::.cpu.inst               3044                       # number of demand (read+write) misses
system.l2.demand_misses::.cpu.data               4599                       # number of demand (read+write) misses
system.l2.demand_misses::total                   7643                       # number of demand (read+write) misses
system.l2.overall_misses::.cpu.inst              3044                       # number of overall misses
system.l2.overall_misses::.cpu.data              4599                       # number of overall misses
system.l2.overall_misses::total                  7643                       # number of overall misses
system.l2.demand_miss_latency::.cpu.inst    241921000                       # number of demand (read+write) miss cycles
system.l2.demand_miss_latency::.cpu.data    361329000                       # number of demand (read+write) miss cycles
system.l2.demand_miss_latency::total        603250000                       # number of demand (read+write) miss cycles
system.l2.overall_miss_latency::.cpu.inst    241921000                       # number of overall miss cycles
system.l2.overall_miss_latency::.cpu.data    361329000                       # number of overall miss cycles
system.l2.overall_miss_latency::total       603250000                       # number of overall miss cycles
system.l2.demand_accesses::.cpu.inst             6709                       # number of demand (read+write) accesses
system.l2.demand_accesses::.cpu.data             4983                       # number of demand (read+write) accesses
system.l2.demand_accesses::.cpu.icache.prefetcher         1757                       # number of demand (read+write) accesses
system.l2.demand_accesses::total                13449                       # number of demand (read+write) accesses
system.l2.overall_accesses::.cpu.inst            6709                       # number of overall (read+write) accesses
system.l2.overall_accesses::.cpu.data            4983                       # number of overall (read+write) accesses
system.l2.overall_accesses::.cpu.icache.prefetcher         1757                       # number of overall (read+write) accesses
system.l2.overall_accesses::total               13449                       # number of overall (read+write) accesses
system.l2.demand_miss_rate::.cpu.inst        0.453719                       # miss rate for demand accesses
system.l2.demand_miss_rate::.cpu.data        0.922938                       # miss rate for demand accesses
system.l2.demand_miss_rate::total            0.568295                       # miss rate for demand accesses
system.l2.overall_miss_rate::.cpu.inst       0.453719                       # miss rate for overall accesses
system.l2.overall_miss_rate::.cpu.data       0.922938                       # miss rate for overall accesses
system.l2.overall_miss_rate::total           0.568295                       # miss rate for overall accesses
system.l2.demand_avg_miss_latency::.cpu.inst 79474.704336                       # average overall miss latency
system.l2.demand_avg_miss_latency::.cpu.data 78566.862361                       # average overall miss latency
system.l2.demand_avg_miss_latency::total 78928.431244                       # average overall miss latency
system.l2.overall_avg_miss_latency::.cpu.inst 79474.704336                       # average overall miss latency
system.l2.overall_avg_miss_latency::.cpu.data 78566.862361                       # average overall miss latency
system.l2.overall_avg_miss_latency::total 78928.431244                       # average overall miss latency
system.l2.blocked_cycles::no_mshrs                  0                       # number of cycles access was blocked
system.l2.blocked_cycles::no_targets                0                       # number of cycles access was blocked
system.l2.blocked::no_mshrs                         0                       # number of cycles access was blocked
system.l2.blocked::no_targets                       0                       # number of cycles access was blocked
system.l2.avg_blocked_cycles::no_mshrs            nan                       # average number of cycles each access was blocked
system.l2.avg_blocked_cycles::no_targets          nan                       # average number of cycles each access was blocked
system.l2.demand_mshr_misses::.cpu.inst          3044                       # number of demand (read+write) MSHR misses
system.l2.demand_mshr_misses::.cpu.data          4599                       # number of demand (read+write) MSHR misses
system.l2.demand_mshr_misses::total              7643                       # number of demand (read+write) MSHR misses
system.l2.overall_mshr_misses::.cpu.inst         3044                       # number of overall MSHR misses
system.l2.overall_mshr_misses::.cpu.data         4599                       # number of overall MSHR misses
system.l2.overall_mshr_misses::total             7643                       # number of overall MSHR misses
system.l2.demand_mshr_miss_latency::.cpu.inst    211481000                       # number of demand (read+write) MSHR miss cycles
system.l2.demand_mshr_miss_latency::.cpu.data    315348501                       # number of demand (read+write) MSHR miss cycles
system.l2.demand_mshr_miss_latency::total    526829501                       # number of demand (read+write) MSHR miss cycles
system.l2.overall_mshr_miss_latency::.cpu.inst    211481000                       # number of overall MSHR miss cycles
system.l2.overall_mshr_miss_latency::.cpu.data    315348501                       # number of overall MSHR miss cycles
system.l2.overall_mshr_miss_latency::total    526829501                       # number of overall MSHR miss cycles
system.l2.demand_mshr_miss_rate::.cpu.inst     0.453719                       # mshr miss rate for demand accesses
system.l2.demand_mshr_miss_rate::.cpu.data     0.922938                       # mshr miss rate for demand accesses
system.l2.demand_mshr_miss_rate::total       0.568295                       # mshr miss rate for demand accesses
system.l2.overall_mshr_miss_rate::.cpu.inst     0.453719                       # mshr miss rate for overall accesses
system.l2.overall_mshr_miss_rate::.cpu.data     0.922938                       # mshr miss rate for overall accesses
system.l2.overall_mshr_miss_rate::total      0.568295                       # mshr miss rate for overall accesses
system.l2.demand_avg_mshr_miss_latency::.cpu.inst 69474.704336                       # average overall mshr miss latency
system.l2.demand_avg_mshr_miss_latency::.cpu.data 68568.928245                       # average overall mshr miss latency
system.l2.demand_avg_mshr_miss_latency::total 68929.674343                       # average overall mshr miss latency
system.l2.overall_avg_mshr_miss_latency::.cpu.inst 69474.704336                       # average overall mshr miss latency
system.l2.overall_avg_mshr_miss_latency::.cpu.data 68568.928245                       # average overall mshr miss latency
system.l2.overall_avg_mshr_miss_latency::total 68929.674343                       # average overall mshr miss latency
system.l2.replacements                              0                       # number of replacements
system.l2.WritebackDirty_hits::.writebacks         3263                       # number of WritebackDirty hits
system.l2.WritebackDirty_hits::total             3263                       # number of WritebackDirty hits
system.l2.WritebackDirty_accesses::.writebacks         3263                       # number of WritebackDirty accesses(hits+misses)
system.l2.WritebackDirty_accesses::total         3263                       # number of WritebackDirty accesses(hits+misses)
system.l2.WritebackClean_hits::.writebacks         8205                       # number of WritebackClean hits
system.l2.WritebackClean_hits::total             8205                       # number of WritebackClean hits
system.l2.WritebackClean_accesses::.writebacks         8205                       # number of WritebackClean accesses(hits+misses)
system.l2.WritebackClean_accesses::total         8205                       # number of WritebackClean accesses(hits+misses)
system.l2.UpgradeReq_hits::.cpu.data                1                       # number of UpgradeReq hits
system.l2.UpgradeReq_hits::total                    1                       # number of UpgradeReq hits
system.l2.UpgradeReq_accesses::.cpu.data            1                       # number of UpgradeReq accesses(hits+misses)
system.l2.UpgradeReq_accesses::total                1                       # number of UpgradeReq accesses(hits+misses)
system.l2.ReadExReq_hits::.cpu.data                78                       # number of ReadExReq hits
system.l2.ReadExReq_hits::total                    78                       # number of ReadExReq hits
system.l2.ReadExReq_misses::.cpu.data            3548                       # number of ReadExReq misses
system.l2.ReadExReq_misses::total                3548                       # number of ReadExReq misses
system.l2.ReadExReq_miss_latency::.cpu.data    276158500                       # number of ReadExReq miss cycles
system.l2.ReadExReq_miss_latency::total     276158500                       # number of ReadExReq miss cycles
system.l2.ReadExReq_accesses::.cpu.data          3626                       # number of ReadExReq accesses(hits+misses)
system.l2.ReadExReq_accesses::total              3626                       # number of ReadExReq accesses(hits+misses)
system.l2.ReadExReq_miss_rate::.cpu.data     0.978489                       # miss rate for ReadExReq accesses
system.l2.ReadExReq_miss_rate::total         0.978489                       # miss rate for ReadExReq accesses
system.l2.ReadExReq_avg_miss_latency::.cpu.data 77834.977452                       # average ReadExReq miss latency
system.l2.ReadExReq_avg_miss_latency::total 77834.977452                       # average ReadExReq miss latency
system.l2.ReadExReq_mshr_misses::.cpu.data         3548                       # number of ReadExReq MSHR misses
system.l2.ReadExReq_mshr_misses::total           3548                       # number of ReadExReq MSHR misses
system.l2.ReadExReq_mshr_miss_latency::.cpu.data    240688001                       # number of ReadExReq MSHR miss cycles
system.l2.ReadExReq_mshr_miss_latency::total    240688001                       # number of ReadExReq MSHR miss cycles
system.l2.ReadExReq_mshr_miss_rate::.cpu.data     0.978489                       # mshr miss rate for ReadExReq accesses
system.l2.ReadExReq_mshr_miss_rate::total     0.978489                       # mshr miss rate for ReadExReq accesses
system.l2.ReadExReq_avg_mshr_miss_latency::.cpu.data 67837.655299                       # average ReadExReq mshr miss latency
system.l2.ReadExReq_avg_mshr_miss_latency::total 67837.655299                       # average ReadExReq mshr miss latency
system.l2.ReadCleanReq_hits::.cpu.inst           3665                       # number of ReadCleanReq hits
system.l2.ReadCleanReq_hits::.cpu.icache.prefetcher         1757                       # number of ReadCleanReq hits
system.l2.ReadCleanReq_hits::total               5422                       # number of ReadCleanReq hits
[...]
system.cpu.dcache.demand_accesses::.cpu.data       385583                       # number of demand (read+write) accesses
system.cpu.dcache.demand_accesses::total       385583                       # number of demand (read+write) accesses
system.cpu.dcache.overall_accesses::.cpu.data       386194                       # number of overall (read+write) accesses
system.cpu.dcache.overall_accesses::total       386194                       # number of overall (read+write) accesses
system.cpu.dcache.demand_miss_rate::.cpu.data     0.118561                       # miss rate for demand accesses
system.cpu.dcache.demand_miss_rate::total     0.118561                       # miss rate for demand accesses
system.cpu.dcache.overall_miss_rate::.cpu.data     0.118381                       # miss rate for overall accesses
system.cpu.dcache.overall_miss_rate::total     0.118381                       # miss rate for overall accesses
system.cpu.dcache.demand_avg_miss_latency::.cpu.data 61811.108280                       # average overall miss latency
system.cpu.dcache.demand_avg_miss_latency::total 61811.108280                       # average overall miss latency
system.cpu.dcache.overall_avg_miss_latency::.cpu.data 61807.052255                       # average overall miss latency
system.cpu.dcache.overall_avg_miss_latency::total 61807.052255                       # average overall miss latency
system.cpu.dcache.blocked_cycles::no_mshrs        33089                       # number of cycles access was blocked
system.cpu.dcache.blocked_cycles::no_targets         2583                       # number of cycles access was blocked
system.cpu.dcache.blocked::no_mshrs               840                       # number of cycles access was blocked
system.cpu.dcache.blocked::no_targets              22                       # number of cycles access was blocked
system.cpu.dcache.avg_blocked_cycles::no_mshrs    39.391667                       # average number of cycles each access was blocked
system.cpu.dcache.avg_blocked_cycles::no_targets   117.409091                       # average number of cycles each access was blocked
system.cpu.dcache.writebacks::.writebacks         3263                       # number of writebacks
system.cpu.dcache.writebacks::total              3263                       # number of writebacks
system.cpu.dcache.demand_mshr_hits::.cpu.data        40561                       # number of demand (read+write) MSHR hits
system.cpu.dcache.demand_mshr_hits::total        40561                       # number of demand (read+write) MSHR hits
system.cpu.dcache.overall_mshr_hits::.cpu.data        40561                       # number of overall MSHR hits
system.cpu.dcache.overall_mshr_hits::total        40561                       # number of overall MSHR hits
system.cpu.dcache.demand_mshr_misses::.cpu.data         5154                       # number of demand (read+write) MSHR misses
system.cpu.dcache.demand_mshr_misses::total         5154                       # number of demand (read+write) MSHR misses
system.cpu.dcache.overall_mshr_misses::.cpu.data         5157                       # number of overall MSHR misses
system.cpu.dcache.overall_mshr_misses::total         5157                       # number of overall MSHR misses
system.cpu.dcache.demand_mshr_miss_latency::.cpu.data    378132401                       # number of demand (read+write) MSHR miss cycles
system.cpu.dcache.demand_mshr_miss_latency::total    378132401                       # number of demand (read+write) MSHR miss cycles
system.cpu.dcache.overall_mshr_miss_latency::.cpu.data    378416901                       # number of overall MSHR miss cycles
system.cpu.dcache.overall_mshr_miss_latency::total    378416901                       # number of overall MSHR miss cycles
system.cpu.dcache.demand_mshr_miss_rate::.cpu.data     0.013367                       # mshr miss rate for demand accesses
system.cpu.dcache.demand_mshr_miss_rate::total     0.013367                       # mshr miss rate for demand accesses
system.cpu.dcache.overall_mshr_miss_rate::.cpu.data     0.013353                       # mshr miss rate for overall accesses
system.cpu.dcache.overall_mshr_miss_rate::total     0.013353                       # mshr miss rate for overall accesses
system.cpu.dcache.demand_avg_mshr_miss_latency::.cpu.data 73366.783275                       # average overall mshr miss latency
system.cpu.dcache.demand_avg_mshr_miss_latency::total 73366.783275                       # average overall mshr miss latency
system.cpu.dcache.overall_avg_mshr_miss_latency::.cpu.data 73379.271088                       # average overall mshr miss latency
system.cpu.dcache.overall_avg_mshr_miss_latency::total 73379.271088                       # average overall mshr miss latency
system.cpu.dcache.replacements                   4132                       # number of replacements
system.cpu.dcache.ReadReq_hits::.cpu.data       174216                       # number of ReadReq hits
system.cpu.dcache.ReadReq_hits::total          174216                       # number of ReadReq hits
system.cpu.dcache.ReadReq_misses::.cpu.data        10715                       # number of ReadReq misses
system.cpu.dcache.ReadReq_misses::total         10715                       # number of ReadReq misses
system.cpu.dcache.ReadReq_miss_latency::.cpu.data    625051500                       # number of ReadReq miss cycles
system.cpu.dcache.ReadReq_miss_latency::total    625051500                       # number of ReadReq miss cycles
system.cpu.dcache.ReadReq_accesses::.cpu.data       184931                       # number of ReadReq accesses(hits+misses)
system.cpu.dcache.ReadReq_accesses::total       184931                       # number of ReadReq accesses(hits+misses)
system.cpu.dcache.ReadReq_miss_rate::.cpu.data     0.057941                       # miss rate for ReadReq accesses
system.cpu.dcache.ReadReq_miss_rate::total     0.057941                       # miss rate for ReadReq accesses
system.cpu.dcache.ReadReq_avg_miss_latency::.cpu.data 58334.251050                       # average ReadReq miss latency
system.cpu.dcache.ReadReq_avg_miss_latency::total 58334.251050                       # average ReadReq miss latency
system.cpu.dcache.ReadReq_mshr_hits::.cpu.data         9362                       # number of ReadReq MSHR hits
system.cpu.dcache.ReadReq_mshr_hits::total         9362                       # number of ReadReq MSHR hits
system.cpu.dcache.ReadReq_mshr_misses::.cpu.data         1353                       # number of ReadReq MSHR misses
system.cpu.dcache.ReadReq_mshr_misses::total         1353                       # number of ReadReq MSHR misses
system.cpu.dcache.ReadReq_mshr_miss_latency::.cpu.data     90103000                       # number of ReadReq MSHR miss cycles
system.cpu.dcache.ReadReq_mshr_miss_latency::total     90103000                       # number of ReadReq MSHR miss cycles
system.cpu.dcache.ReadReq_mshr_miss_rate::.cpu.data     0.007316                       # mshr miss rate for ReadReq accesses
system.cpu.dcache.ReadReq_mshr_miss_rate::total     0.007316                       # mshr miss rate for ReadReq accesses
system.cpu.dcache.ReadReq_avg_mshr_miss_latency::.cpu.data 66594.974132                       # average ReadReq mshr miss latency
system.cpu.dcache.ReadReq_avg_mshr_miss_latency::total 66594.974132                       # average ReadReq mshr miss latency
system.cpu.dcache.WriteReq_hits::.cpu.data       165649                       # number of WriteReq hits
system.cpu.dcache.WriteReq_hits::total         165649                       # number of WriteReq hits
system.cpu.dcache.WriteReq_misses::.cpu.data        34858                       # number of WriteReq misses
system.cpu.dcache.WriteReq_misses::total        34858                       # number of WriteReq misses
system.cpu.dcache.WriteReq_miss_latency::.cpu.data   2196075397                       # number of WriteReq miss cycles
system.cpu.dcache.WriteReq_miss_latency::total   2196075397                       # number of WriteReq miss cycles
system.cpu.dcache.WriteReq_accesses::.cpu.data       200507                       # number of WriteReq accesses(hits+misses)
system.cpu.dcache.WriteReq_accesses::total       200507                       # number of WriteReq accesses(hits+misses)
system.cpu.dcache.WriteReq_miss_rate::.cpu.data     0.173849                       # miss rate for WriteReq accesses
system.cpu.dcache.WriteReq_miss_rate::total     0.173849                       # miss rate for WriteReq accesses
system.cpu.dcache.WriteReq_avg_miss_latency::.cpu.data 63000.613833                       # average WriteReq miss latency
system.cpu.dcache.WriteReq_avg_miss_latency::total 63000.613833                       # average WriteReq miss latency
system.cpu.dcache.WriteReq_mshr_hits::.cpu.data        31199                       # number of WriteReq MSHR hits
system.cpu.dcache.WriteReq_mshr_hits::total        31199                       # number of WriteReq MSHR hits
system.cpu.dcache.WriteReq_mshr_misses::.cpu.data         3659                       # number of WriteReq MSHR misses
system.cpu.dcache.WriteReq_mshr_misses::total         3659                       # number of WriteReq MSHR misses
system.cpu.dcache.WriteReq_mshr_miss_latency::.cpu.data    283603483                       # number of WriteReq MSHR miss cycles
system.cpu.dcache.WriteReq_mshr_miss_latency::total    283603483                       # number of WriteReq MSHR miss cycles
system.cpu.dcache.WriteReq_mshr_miss_rate::.cpu.data     0.018249                       # mshr miss rate for WriteReq accesses
system.cpu.dcache.WriteReq_mshr_miss_rate::total     0.018249                       # mshr miss rate for WriteReq accesses
system.cpu.dcache.WriteReq_avg_mshr_miss_latency::.cpu.data 77508.467614                       # average WriteReq mshr miss latency
system.cpu.dcache.WriteReq_avg_mshr_miss_latency::total 77508.467614                       # average WriteReq mshr miss latency
system.cpu.dcache.SoftPFReq_hits::.cpu.data          608                       # number of SoftPFReq hits
system.cpu.dcache.SoftPFReq_hits::total           608                       # number of SoftPFReq hits
system.cpu.dcache.SoftPFReq_misses::.cpu.data            3                       # number of SoftPFReq misses
system.cpu.dcache.SoftPFReq_misses::total            3                       # number of SoftPFReq misses
system.cpu.dcache.SoftPFReq_accesses::.cpu.data          611                       # number of SoftPFReq accesses(hits+misses)
system.cpu.dcache.SoftPFReq_accesses::total          611                       # number of SoftPFReq accesses(hits+misses)
system.cpu.dcache.SoftPFReq_miss_rate::.cpu.data     0.004910                       # miss rate for SoftPFReq accesses
system.cpu.dcache.SoftPFReq_miss_rate::total     0.004910                       # miss rate for SoftPFReq accesses
system.cpu.dcache.SoftPFReq_mshr_misses::.cpu.data            3                       # number of SoftPFReq MSHR misses
system.cpu.dcache.SoftPFReq_mshr_misses::total            3                       # number of SoftPFReq MSHR misses
system.cpu.dcache.SoftPFReq_mshr_miss_latency::.cpu.data       284500                       # number of SoftPFReq MSHR miss cycles
system.cpu.dcache.SoftPFReq_mshr_miss_latency::total       284500                       # number of SoftPFReq MSHR miss cycles
system.cpu.dcache.SoftPFReq_mshr_miss_rate::.cpu.data     0.004910                       # mshr miss rate for SoftPFReq accesses
system.cpu.dcache.SoftPFReq_mshr_miss_rate::total     0.004910                       # mshr miss rate for SoftPFReq accesses
system.cpu.dcache.SoftPFReq_avg_mshr_miss_latency::.cpu.data 94833.333333                       # average SoftPFReq mshr miss latency
system.cpu.dcache.SoftPFReq_avg_mshr_miss_latency::total 94833.333333                       # average SoftPFReq mshr miss latency
system.cpu.dcache.WriteLineReq_hits::.cpu.data            3                       # number of WriteLineReq hits
system.cpu.dcache.WriteLineReq_hits::total            3                       # number of WriteLineReq hits
system.cpu.dcache.WriteLineReq_misses::.cpu.data          142                       # number of WriteLineReq misses
system.cpu.dcache.WriteLineReq_misses::total          142                       # number of WriteLineReq misses
system.cpu.dcache.WriteLineReq_miss_latency::.cpu.data      4567918                       # number of WriteLineReq miss cycles
system.cpu.dcache.WriteLineReq_miss_latency::total      4567918                       # number of WriteLineReq miss cycles
system.cpu.dcache.WriteLineReq_accesses::.cpu.data          145                       # number of WriteLineReq accesses(hits+misses)
system.cpu.dcache.WriteLineReq_accesses::total          145                       # number of WriteLineReq accesses(hits+misses)
system.cpu.dcache.WriteLineReq_miss_rate::.cpu.data     0.979310                       # miss rate for WriteLineReq accesses
system.cpu.dcache.WriteLineReq_miss_rate::total     0.979310                       # miss rate for WriteLineReq accesses
system.cpu.dcache.WriteLineReq_avg_miss_latency::.cpu.data 32168.436620                       # average WriteLineReq miss latency
system.cpu.dcache.WriteLineReq_avg_miss_latency::total 32168.436620                       # average WriteLineReq miss latency
system.cpu.dcache.WriteLineReq_mshr_misses::.cpu.data          142                       # number of WriteLineReq MSHR misses
system.cpu.dcache.WriteLineReq_mshr_misses::total          142                       # number of WriteLineReq MSHR misses
system.cpu.dcache.WriteLineReq_mshr_miss_latency::.cpu.data      4425918                       # number of WriteLineReq MSHR miss cycles
system.cpu.dcache.WriteLineReq_mshr_miss_latency::total      4425918                       # number of WriteLineReq MSHR miss cycles
system.cpu.dcache.WriteLineReq_mshr_miss_rate::.cpu.data     0.979310                       # mshr miss rate for WriteLineReq accesses
system.cpu.dcache.WriteLineReq_mshr_miss_rate::total     0.979310                       # mshr miss rate for WriteLineReq accesses
system.cpu.dcache.WriteLineReq_avg_mshr_miss_latency::.cpu.data 31168.436620                       # average WriteLineReq mshr miss latency
system.cpu.dcache.WriteLineReq_avg_mshr_miss_latency::total 31168.436620                       # average WriteLineReq mshr miss latency
system.cpu.dcache.LoadLockedReq_hits::.cpu.data          574                       # number of LoadLockedReq hits
system.cpu.dcache.LoadLockedReq_hits::total          574                       # number of LoadLockedReq hits
system.cpu.dcache.LoadLockedReq_misses::.cpu.data            3                       # number of LoadLockedReq misses
system.cpu.dcache.LoadLockedReq_misses::total            3                       # number of LoadLockedReq misses
system.cpu.dcache.LoadLockedReq_miss_latency::.cpu.data       269000                       # number of LoadLockedReq miss cycles
system.cpu.dcache.LoadLockedReq_miss_latency::total       269000                       # number of LoadLockedReq miss cycles
system.cpu.dcache.LoadLockedReq_accesses::.cpu.data          577                       # number of LoadLockedReq accesses(hits+misses)
system.cpu.dcache.LoadLockedReq_accesses::total          577                       # number of LoadLockedReq accesses(hits+misses)
system.cpu.dcache.LoadLockedReq_miss_rate::.cpu.data     0.005199                       # miss rate for LoadLockedReq accesses
system.cpu.dcache.LoadLockedReq_miss_rate::total     0.005199                       # miss rate for LoadLockedReq accesses
system.cpu.dcache.LoadLockedReq_avg_miss_latency::.cpu.data 89666.666667                       # average LoadLockedReq miss latency
system.cpu.dcache.LoadLockedReq_avg_miss_latency::total 89666.666667                       # average LoadLockedReq miss latency
system.cpu.dcache.LoadLockedReq_mshr_hits::.cpu.data            2                       # number of LoadLockedReq MSHR hits
system.cpu.dcache.LoadLockedReq_mshr_hits::total            2                       # number of LoadLockedReq MSHR hits
system.cpu.dcache.LoadLockedReq_mshr_misses::.cpu.data            1                       # number of LoadLockedReq MSHR misses
system.cpu.dcache.LoadLockedReq_mshr_misses::total            1                       # number of LoadLockedReq MSHR misses
system.cpu.dcache.LoadLockedReq_mshr_miss_latency::.cpu.data       104500                       # number of LoadLockedReq MSHR miss cycles
system.cpu.dcache.LoadLockedReq_mshr_miss_latency::total       104500                       # number of LoadLockedReq MSHR miss cycles
system.cpu.dcache.LoadLockedReq_mshr_miss_rate::.cpu.data     0.001733                       # mshr miss rate for LoadLockedReq accesses
system.cpu.dcache.LoadLockedReq_mshr_miss_rate::total     0.001733                       # mshr miss rate for LoadLockedReq accesses
system.cpu.dcache.LoadLockedReq_avg_mshr_miss_latency::.cpu.data       104500                       # average LoadLockedReq mshr miss latency
system.cpu.dcache.LoadLockedReq_avg_mshr_miss_latency::total       104500                       # average LoadLockedReq mshr miss latency
system.cpu.dcache.StoreCondReq_hits::.cpu.data          542                       # number of StoreCondReq hits
system.cpu.dcache.StoreCondReq_hits::total          542                       # number of StoreCondReq hits
system.cpu.dcache.StoreCondReq_accesses::.cpu.data          542                       # number of StoreCondReq accesses(hits+misses)
system.cpu.dcache.StoreCondReq_accesses::total          542                       # number of StoreCondReq accesses(hits+misses)
system.cpu.dcache.power_state.pwrStateResidencyTicks::UNDEFINED    615469000                       # Cumulative time (in ticks) in various power states
system.cpu.dcache.tags.tagsinuse           847.965779                       # Cycle average of tags in use
system.cpu.dcache.tags.total_refs              346756                       # Total number of references to valid blocks.
system.cpu.dcache.tags.sampled_refs              5156                       # Sample count of references to valid blocks.
system.cpu.dcache.tags.avg_refs             67.252909                       # Average number of references to valid blocks.
system.cpu.dcache.tags.warmup_cycle            176500                       # Cycle when the warmup percentage was hit.
system.cpu.dcache.tags.occ_blocks::.cpu.data   847.965779                       # Average occupied blocks per requestor
system.cpu.dcache.tags.occ_percent::.cpu.data     0.828092                       # Average percentage of cache occupancy
system.cpu.dcache.tags.occ_percent::total     0.828092                       # Average percentage of cache occupancy
system.cpu.dcache.tags.occ_task_id_blocks::1024         1024                       # Occupied blocks per task id
system.cpu.dcache.tags.age_task_id_blocks_1024::0          136                       # Occupied blocks per task id
system.cpu.dcache.tags.age_task_id_blocks_1024::1          751                       # Occupied blocks per task id
system.cpu.dcache.tags.age_task_id_blocks_1024::2          137                       # Occupied blocks per task id
system.cpu.dcache.tags.occ_task_id_percent::1024            1                       # Percentage of cache occupancy per task id
system.cpu.dcache.tags.tag_accesses            779782                       # Number of tag accesses
system.cpu.dcache.tags.data_accesses           779782                       # Number of data accesses
system.cpu.dcache.tags.power_state.pwrStateResidencyTicks::UNDEFINED    615469000                       # Cumulative time (in ticks) in various power states
system.cpu.power_state.pwrStateResidencyTicks::ON    615469000                       # Cumulative time (in ticks) in various power states

---------- End Simulation Statistics   ----------
