
---------- Begin Simulation Statistics ----------
final_tick                                 1420407500                       # Number of ticks from beginning of simulation (restored from checkpoints and never reset)
host_inst_rate                                 208379                       # Simulator instruction rate (inst/s)
host_mem_usage                                 867320                       # Number of bytes of host memory used
host_op_rate                                   240536                       # Simulator op (including micro ops) rate (op/s)
host_seconds                                    13.60                       # Real time elapsed on the host
host_tick_rate                              104471938                       # Simulator tick rate (ticks/s)
sim_freq                                 1000000000000                       # Frequency of simulated ticks
sim_insts                                     2833100                       # Number of instructions simulated
sim_ops                                       3270344                       # Number of ops (including micro ops) simulated
sim_seconds                                  0.001420                       # Number of seconds simulated
sim_ticks                                  1420407500                       # Number of ticks simulated
system.cpu.branchPred.BTBCorrect                    0                       # Number of correct BTB predictions (this stat may not work properly.
system.cpu.branchPred.BTBHitPct             98.493956                       # BTB Hit Percentage
system.cpu.branchPred.BTBHits                  302144                       # Number of BTB hits
system.cpu.branchPred.BTBLookups               306764                       # Number of BTB lookups
system.cpu.branchPred.RASInCorrect                  4                       # Number of incorrect RAS predictions.
system.cpu.branchPred.condIncorrect              7317                       # Number of conditional branches incorrect
system.cpu.branchPred.condPredicted            536559                       # Number of conditional branches predicted
system.cpu.branchPred.indirectHits               1229                       # Number of indirect target hits.
system.cpu.branchPred.indirectLookups            2060                       # Number of indirect predictor lookups.
system.cpu.branchPred.indirectMisses              831                       # Number of indirect misses.
system.cpu.branchPred.lookups                  663785                       # Number of BP lookups
system.cpu.branchPred.usedRAS                   37782                       # Number of times the RAS was used to get a target.
system.cpu.branchPredindirectMispredicted          149                       # Number of mispredicted indirect branches.
system.cpu.cc_regfile_reads                    990837                       # number of cc regfile reads
system.cpu.cc_regfile_writes                   984789                       # number of cc regfile writes
system.cpu.commit.amos                              0                       # Number of atomic instructions committed
system.cpu.commit.branchMispredicts              5901                       # The number of times a branch was mispredicted
system.cpu.commit.branches                     559313                       # Number of branches committed
system.cpu.commit.bw_lim_events                189168                       # number cycles where commit BW limit reached
system.cpu.commit.commitNonSpecStalls             388                       # The number of times commit has been forced to stall to communicate backwards
system.cpu.commit.commitSquashedInsts          284023                       # The number of squashed insts skipped by commit
system.cpu.commit.committedInsts              2845009                       # Number of instructions committed
system.cpu.commit.committedOps                3282253                       # Number of ops (including micro ops) committed
system.cpu.commit.committed_per_cycle::samples      2696802                       # Number of insts commited each cycle
system.cpu.commit.committed_per_cycle::mean     1.217091                       # Number of insts commited each cycle
system.cpu.commit.committed_per_cycle::stdev     2.358978                       # Number of insts commited each cycle
system.cpu.commit.committed_per_cycle::underflows            0      0.00%      0.00% # Number of insts commited each cycle
system.cpu.commit.committed_per_cycle::0      1828440     67.80%     67.80% # Number of insts commited each cycle
system.cpu.commit.committed_per_cycle::1       275153     10.20%     78.00% # Number of insts commited each cycle
system.cpu.commit.committed_per_cycle::2       127399      4.72%     82.73% # Number of insts commited each cycle
system.cpu.commit.committed_per_cycle::3       103692      3.84%     86.57% # Number of insts commited each cycle
system.cpu.commit.committed_per_cycle::4        55180      2.05%     88.62% # Number of insts commited each cycle
system.cpu.commit.committed_per_cycle::5        23758      0.88%     89.50% # Number of insts commited each cycle
system.cpu.commit.committed_per_cycle::6        69712      2.58%     92.08% # Number of insts commited each cycle
system.cpu.commit.committed_per_cycle::7        24300      0.90%     92.99% # Number of insts commited each cycle
system.cpu.commit.committed_per_cycle::8       189168      7.01%    100.00% # Number of insts commited each cycle
system.cpu.commit.committed_per_cycle::overflows            0      0.00%    100.00% # Number of insts commited each cycle
system.cpu.commit.committed_per_cycle::min_value            0                       # Number of insts commited each cycle
system.cpu.commit.committed_per_cycle::max_value            8                       # Number of insts commited each cycle
system.cpu.commit.committed_per_cycle::total      2696802                       # Number of insts commited each cycle
system.cpu.commit.fp_insts                          0                       # Number of committed floating point instructions.
system.cpu.commit.function_calls                29833                       # Number of function calls committed.
system.cpu.commit.int_insts                   2980509                       # Number of committed integer instructions.
system.cpu.commit.loads                        448105                       # Number of loads committed
system.cpu.commit.membars                         278                       # Number of memory barriers committed
system.cpu.commit.op_class_0::No_OpClass           38      0.00%      0.00% # Class of committed instruction
system.cpu.commit.op_class_0::IntAlu          2375636     72.38%     72.38% # Class of committed instruction
system.cpu.commit.op_class_0::IntMult           17827      0.54%     72.92% # Class of committed instruction
system.cpu.commit.op_class_0::IntDiv              512      0.02%     72.94% # Class of committed instruction
system.cpu.commit.op_class_0::FloatAdd            625      0.02%     72.96% # Class of committed instruction
system.cpu.commit.op_class_0::FloatCmp            137      0.00%     72.96% # Class of committed instruction
system.cpu.commit.op_class_0::FloatCvt           1604      0.05%     73.01% # Class of committed instruction
system.cpu.commit.op_class_0::FloatMult           946      0.03%     73.04% # Class of committed instruction
system.cpu.commit.op_class_0::FloatMultAcc         1506      0.05%     73.08% # Class of committed instruction
system.cpu.commit.op_class_0::FloatDiv            628      0.02%     73.10% # Class of committed instruction
system.cpu.commit.op_class_0::FloatMisc          1211      0.04%     73.14% # Class of committed instruction
system.cpu.commit.op_class_0::FloatSqrt             0      0.00%     73.14% # Class of committed instruction
system.cpu.commit.op_class_0::SimdAdd              98      0.00%     73.14% # Class of committed instruction
system.cpu.commit.op_class_0::SimdAddAcc            0      0.00%     73.14% # Class of committed instruction
system.cpu.commit.op_class_0::SimdAlu             162      0.00%     73.15% # Class of committed instruction
system.cpu.commit.op_class_0::SimdCmp             152      0.00%     73.15% # Class of committed instruction
system.cpu.commit.op_class_0::SimdCvt               0      0.00%     73.15% # Class of committed instruction
system.cpu.commit.op_class_0::SimdMisc            754      0.02%     73.18% # Class of committed instruction
system.cpu.commit.op_class_0::SimdMult              0      0.00%     73.18% # Class of committed instruction
system.cpu.commit.op_class_0::SimdMultAcc            0      0.00%     73.18% # Class of committed instruction
system.cpu.commit.op_class_0::SimdShift             0      0.00%     73.18% # Class of committed instruction
system.cpu.commit.op_class_0::SimdShiftAcc            0      0.00%     73.18% # Class of committed instruction
system.cpu.commit.op_class_0::SimdDiv               0      0.00%     73.18% # Class of committed instruction
system.cpu.commit.op_class_0::SimdSqrt              0      0.00%     73.18% # Class of committed instruction
system.cpu.commit.op_class_0::SimdFloatAdd            0      0.00%     73.18% # Class of committed instruction
system.cpu.commit.op_class_0::SimdFloatAlu            0      0.00%     73.18% # Class of committed instruction
system.cpu.commit.op_class_0::SimdFloatCmp            0      0.00%     73.18% # Class of committed instruction
system.cpu.commit.op_class_0::SimdFloatCvt            0      0.00%     73.18% # Class of committed instruction
system.cpu.commit.op_class_0::SimdFloatDiv            0      0.00%     73.18% # Class of committed instruction
system.cpu.commit.op_class_0::SimdFloatMisc            0      0.00%     73.18% # Class of committed instruction
system.cpu.commit.op_class_0::SimdFloatMult            0      0.00%     73.18% # Class of committed instruction
system.cpu.commit.op_class_0::SimdFloatMultAcc            0      0.00%     73.18% # Class of committed instruction
system.cpu.commit.op_class_0::SimdFloatSqrt            0      0.00%     73.18% # Class of committed instruction
system.cpu.commit.op_class_0::SimdReduceAdd            0      0.00%     73.18% # Class of committed instruction
system.cpu.commit.op_class_0::SimdReduceAlu            0      0.00%     73.18% # Class of committed instruction
system.cpu.commit.op_class_0::SimdReduceCmp            0      0.00%     73.18% # Class of committed instruction
system.cpu.commit.op_class_0::SimdFloatReduceAdd            0      0.00%     73.18% # Class of committed instruction
system.cpu.commit.op_class_0::SimdFloatReduceCmp            0      0.00%     73.18% # Class of committed instruction
system.cpu.commit.op_class_0::SimdAes               0      0.00%     73.18% # Class of committed instruction
system.cpu.commit.op_class_0::SimdAesMix            0      0.00%     73.18% # Class of committed instruction
system.cpu.commit.op_class_0::SimdSha1Hash            0      0.00%     73.18% # Class of committed instruction
system.cpu.commit.op_class_0::SimdSha1Hash2            0      0.00%     73.18% # Class of committed instruction
system.cpu.commit.op_class_0::SimdSha256Hash            0      0.00%     73.18% # Class of committed instruction
system.cpu.commit.op_class_0::SimdSha256Hash2            0      0.00%     73.18% # Class of committed instruction
system.cpu.commit.op_class_0::SimdShaSigma2            0      0.00%     73.18% # Class of committed instruction
system.cpu.commit.op_class_0::SimdShaSigma3            0      0.00%     73.18% # Class of committed instruction
system.cpu.commit.op_class_0::SimdPredAlu            0      0.00%     73.18% # Class of committed instruction
system.cpu.commit.op_class_0::MemRead          448105     13.65%     86.83% # Class of committed instruction
system.cpu.commit.op_class_0::MemWrite         432312     13.17%    100.00% # Class of committed instruction
system.cpu.commit.op_class_0::FloatMemRead            0      0.00%    100.00% # Class of committed instruction
system.cpu.commit.op_class_0::FloatMemWrite            0      0.00%    100.00% # Class of committed instruction
system.cpu.commit.op_class_0::IprAccess             0      0.00%    100.00% # Class of committed instruction
system.cpu.commit.op_class_0::InstPrefetch            0      0.00%    100.00% # Class of committed instruction
system.cpu.commit.op_class_0::total           3282253                       # Class of committed instruction
system.cpu.commit.refs                         880417                       # Number of memory references committed
system.cpu.commit.swp_count                         0                       # Number of s/w prefetches committed
system.cpu.commit.vec_insts                     29063                       # Number of committed Vector instructions.
system.cpu.committedInsts                     2833100                       # Number of Instructions Simulated
system.cpu.committedOps                       3270344                       # Number of Ops (including micro ops) Simulated
system.cpu.cpi                               1.002724                       # CPI: Cycles Per Instruction
system.cpu.cpi_total                         1.002724                       # CPI: Total CPI of All Threads
system.cpu.decode.BlockedCycles               1710311                       # Number of cycles decode is blocked
system.cpu.decode.BranchMispred                  1451                       # Number of times decode detected a branch misprediction
system.cpu.decode.BranchResolved               292604                       # Number of times decode resolved a branch
system.cpu.decode.DecodedInsts                3649342                       # Number of instructions handled by decode
system.cpu.decode.IdleCycles                   410560                       # Number of cycles decode is idle
system.cpu.decode.RunCycles                    554993                       # Number of cycles decode is running
system.cpu.decode.SquashCycles                   8870                       # Number of cycles decode is squashing
system.cpu.decode.SquashedInsts                  4627                       # Number of squashed instructions handled by decode
system.cpu.decode.UnblockCycles                 52596                       # Number of cycles decode is unblocking
system.cpu.dtb.accesses                             0                       # DTB accesses
system.cpu.dtb.align_faults                         0                       # Number of TLB faults due to alignment restrictions
system.cpu.dtb.domain_faults                        0                       # Number of TLB faults due to domain restrictions
system.cpu.dtb.flush_entries                        0                       # Number of entries that have been flushed from TLB
system.cpu.dtb.flush_tlb                            0                       # Number of times complete TLB was flushed
system.cpu.dtb.flush_tlb_asid                       0                       # Number of times TLB was flushed by ASID
system.cpu.dtb.flush_tlb_mva                        0                       # Number of times TLB was flushed by MVA
system.cpu.dtb.flush_tlb_mva_asid                   0                       # Number of times TLB was flushed by MVA & ASID
system.cpu.dtb.hits                                 0                       # DTB hits
system.cpu.dtb.inst_accesses                        0                       # ITB inst accesses
system.cpu.dtb.inst_hits                            0                       # ITB inst hits
system.cpu.dtb.inst_misses                          0                       # ITB inst misses
system.cpu.dtb.misses                               0                       # DTB misses
system.cpu.dtb.perms_faults                         0                       # Number of TLB faults due to permissions restrictions
system.cpu.dtb.prefetch_faults                      0                       # Number of TLB faults due to prefetch
system.cpu.dtb.read_accesses                        0                       # DTB read accesses
system.cpu.dtb.read_hits                            0                       # DTB read hits
system.cpu.dtb.read_misses                          0                       # DTB read misses
system.cpu.dtb.stage2_mmu.stage2_tlb.accesses            0                       # DTB accesses
system.cpu.dtb.stage2_mmu.stage2_tlb.align_faults            0                       # Number of TLB faults due to alignment restrictions
system.cpu.dtb.stage2_mmu.stage2_tlb.domain_faults            0                       # Number of TLB faults due to domain restrictions
system.cpu.dtb.stage2_mmu.stage2_tlb.flush_entries            0                       # Number of entries that have been flushed from TLB
system.cpu.dtb.stage2_mmu.stage2_tlb.flush_tlb            0                       # Number of times complete TLB was flushed
system.cpu.dtb.stage2_mmu.stage2_tlb.flush_tlb_asid            0                       # Number of times TLB was flushed by ASID
system.cpu.dtb.stage2_mmu.stage2_tlb.flush_tlb_mva            0                       # Number of times TLB was flushed by MVA
system.cpu.dtb.stage2_mmu.stage2_tlb.flush_tlb_mva_asid            0                       # Number of times TLB was flushed by MVA & ASID
system.cpu.dtb.stage2_mmu.stage2_tlb.hits            0                       # DTB hits
system.cpu.dtb.stage2_mmu.stage2_tlb.inst_accesses            0                       # ITB inst accesses
system.cpu.dtb.stage2_mmu.stage2_tlb.inst_hits            0                       # ITB inst hits
system.cpu.dtb.stage2_mmu.stage2_tlb.inst_misses            0                       # ITB inst misses
system.cpu.dtb.stage2_mmu.stage2_tlb.misses            0                       # DTB misses
system.cpu.dtb.stage2_mmu.stage2_tlb.perms_faults            0                       # Number of TLB faults due to permissions restrictions
system.cpu.dtb.stage2_mmu.stage2_tlb.prefetch_faults            0                       # Number of TLB faults due to prefetch
system.cpu.dtb.stage2_mmu.stage2_tlb.read_accesses            0                       # DTB read accesses
system.cpu.dtb.stage2_mmu.stage2_tlb.read_hits            0                       # DTB read hits
system.cpu.dtb.stage2_mmu.stage2_tlb.read_misses            0                       # DTB read misses
system.cpu.dtb.stage2_mmu.stage2_tlb.walker.walkRequestOrigin_Requested::Data            0                       # Table walker requests started/completed, data/inst
system.cpu.dtb.stage2_mmu.stage2_tlb.walker.walkRequestOrigin_Requested::Inst            0                       # Table walker requests started/completed, data/inst
system.cpu.dtb.stage2_mmu.stage2_tlb.walker.walkRequestOrigin_Requested::total            0                       # Table walker requests started/completed, data/inst
system.cpu.dtb.stage2_mmu.stage2_tlb.walker.walkRequestOrigin_Completed::Data            0                       # Table walker requests started/completed, data/inst
system.cpu.dtb.stage2_mmu.stage2_tlb.walker.walkRequestOrigin_Completed::Inst            0                       # Table walker requests started/completed, data/inst
system.cpu.dtb.stage2_mmu.stage2_tlb.walker.walkRequestOrigin_Completed::total            0                       # Table walker requests started/completed, data/inst
system.cpu.dtb.stage2_mmu.stage2_tlb.walker.walkRequestOrigin::total            0                       # Table walker requests started/completed, data/inst
system.cpu.dtb.stage2_mmu.stage2_tlb.walker.walks            0                       # Table walker walks requested
system.cpu.dtb.stage2_mmu.stage2_tlb.write_accesses            0                       # DTB write accesses
system.cpu.dtb.stage2_mmu.stage2_tlb.write_hits            0                       # DTB write hits
system.cpu.dtb.stage2_mmu.stage2_tlb.write_misses            0                       # DTB write misses
system.cpu.dtb.walker.walkRequestOrigin_Requested::Data            0                       # Table walker requests started/completed, data/inst
system.cpu.dtb.walker.walkRequestOrigin_Requested::Inst            0                       # Table walker requests started/completed, data/inst
system.cpu.dtb.walker.walkRequestOrigin_Requested::total            0                       # Table walker requests started/completed, data/inst
system.cpu.dtb.walker.walkRequestOrigin_Completed::Data            0                       # Table walker requests started/completed, data/inst
system.cpu.dtb.walker.walkRequestOrigin_Completed::Inst            0                       # Table walker requests started/completed, data/inst
system.cpu.dtb.walker.walkRequestOrigin_Completed::total            0                       # Table walker requests started/completed, data/inst
system.cpu.dtb.walker.walkRequestOrigin::total            0                       # Table walker requests started/completed, data/inst
system.cpu.dtb.walker.walks                         0                       # Table walker walks requested
system.cpu.dtb.write_accesses                       0                       # DTB write accesses
system.cpu.dtb.write_hits                           0                       # DTB write hits
system.cpu.dtb.write_misses                         0                       # DTB write misses
system.cpu.fetch.Branches                      663785                       # Number of branches that fetch encountered
system.cpu.fetch.CacheLines                    447090                       # Number of cache lines fetched
system.cpu.fetch.Cycles                       2170421                       # Number of cycles fetch has run and was not squashing or blocked
system.cpu.fetch.IcacheSquashes                  4445                       # Number of outstanding Icache misses that were squashed
system.cpu.fetch.IcacheWaitRetryStallCycles           64                       # Number of stall cycles due to full MSHR
system.cpu.fetch.Insts                        3300309                       # Number of instructions fetch has processed
system.cpu.fetch.MiscStallCycles                   60                       # Number of cycles fetch has spent waiting on interrupts, or bad addresses, or out of MSHRs
system.cpu.fetch.PendingTrapStallCycles           120                       # Number of stall cycles due to pending traps
system.cpu.fetch.SquashCycles                   20612                       # Number of cycles fetch has spent squashing
system.cpu.fetch.branchRate                  0.233660                       # Number of branch fetches per cycle
system.cpu.fetch.icacheStallCycles             556359                       # Number of cycles fetch is stalled on an Icache miss
system.cpu.fetch.predictedBranches             341155                       # Number of branches that fetch has predicted taken
system.cpu.fetch.rate                        1.161747                       # Number of inst fetches per cycle
system.cpu.fetch.rateDist::samples            2737330                       # Number of instructions fetched each cycle (Total)
system.cpu.fetch.rateDist::mean              1.398934                       # Number of instructions fetched each cycle (Total)
system.cpu.fetch.rateDist::stdev             2.670050                       # Number of instructions fetched each cycle (Total)
system.cpu.fetch.rateDist::underflows               0      0.00%      0.00% # Number of instructions fetched each cycle (Total)
system.cpu.fetch.rateDist::0                  2020263     73.80%     73.80% # Number of instructions fetched each cycle (Total)
system.cpu.fetch.rateDist::1                    64164      2.34%     76.15% # Number of instructions fetched each cycle (Total)
system.cpu.fetch.rateDist::2                    76012      2.78%     78.93% # Number of instructions fetched each cycle (Total)
system.cpu.fetch.rateDist::3                    45276      1.65%     80.58% # Number of instructions fetched each cycle (Total)
system.cpu.fetch.rateDist::4                    93274      3.41%     83.99% # Number of instructions fetched each cycle (Total)
system.cpu.fetch.rateDist::5                    82360      3.01%     87.00% # Number of instructions fetched each cycle (Total)
system.cpu.fetch.rateDist::6                    46627      1.70%     88.70% # Number of instructions fetched each cycle (Total)
system.cpu.fetch.rateDist::7                    62162      2.27%     90.97% # Number of instructions fetched each cycle (Total)
system.cpu.fetch.rateDist::8                   247192      9.03%    100.00% # Number of instructions fetched each cycle (Total)
system.cpu.fetch.rateDist::overflows                0      0.00%    100.00% # Number of instructions fetched each cycle (Total)
system.cpu.fetch.rateDist::min_value                0                       # Number of instructions fetched each cycle (Total)
system.cpu.fetch.rateDist::max_value                8                       # Number of instructions fetched each cycle (Total)
system.cpu.fetch.rateDist::total              2737330                       # Number of instructions fetched each cycle (Total)
system.cpu.idleCycles                          103486                       # Total number of cycles that the CPU has spent unscheduled due to idling
system.cpu.iew.branchMispredicts                 6458                       # Number of branch mispredicts detected at execute
system.cpu.iew.exec_branches                   608886                       # Number of branches executed
system.cpu.iew.exec_nop                         12242                       # number of nop insts executed
system.cpu.iew.exec_rate                     1.240701                       # Inst execution rate
system.cpu.iew.exec_refs                       970489                       # number of memory reference insts executed
system.cpu.iew.exec_stores                     466503                       # Number of stores executed
system.cpu.iew.exec_swp                             0                       # number of swp insts executed
system.cpu.iew.iewBlockCycles                   43304                       # Number of cycles IEW is blocking
system.cpu.iew.iewDispLoadInsts                507544                       # Number of dispatched load instructions
system.cpu.iew.iewDispNonSpecInsts                540                       # Number of dispatched non-speculative instructions
system.cpu.iew.iewDispSquashedInsts              6402                       # Number of squashed instructions skipped by dispatch
system.cpu.iew.iewDispStoreInsts               473288                       # Number of dispatched store instructions
system.cpu.iew.iewDispatchedInsts             3577997                       # Number of instructions dispatched to IQ
system.cpu.iew.iewExecLoadInsts                503986                       # Number of load instructions executed
system.cpu.iew.iewExecSquashedInsts             13210                       # Number of squashed instructions skipped in execute
system.cpu.iew.iewExecutedInsts               3524603                       # Number of executed instructions
system.cpu.iew.iewIQFullEvents                    155                       # Number of times the IQ has become full, causing a stall
system.cpu.iew.iewIdleCycles                        0                       # Number of cycles IEW is idle
system.cpu.iew.iewLSQFullEvents                 29272                       # Number of times the LSQ has become full, causing a stall
system.cpu.iew.iewSquashCycles                   8870                       # Number of cycles IEW is squashing
system.cpu.iew.iewUnblockCycles                 29602                       # Number of cycles IEW is unblocking
system.cpu.iew.lsq.thread0.blockedLoads             0                       # Number of blocked loads due to partial load-store forwarding
system.cpu.iew.lsq.thread0.cacheBlocked         13821                       # Number of times an access to memory failed due to the cache being blocked
system.cpu.iew.lsq.thread0.forwLoads            15034                       # Number of loads that had data forwarded from stores
system.cpu.iew.lsq.thread0.ignoredResponses           14                       # Number of memory responses ignored because the instruction is squashed
system.cpu.iew.lsq.thread0.invAddrLoads             0                       # Number of loads ignored due to an invalid address
system.cpu.iew.lsq.thread0.invAddrSwpfs             0                       # Number of software prefetches ignored due to an invalid address
system.cpu.iew.lsq.thread0.memOrderViolation           38                       # Number of memory ordering violations
system.cpu.iew.lsq.thread0.rescheduledLoads         1022                       # Number of loads that were rescheduled
system.cpu.iew.lsq.thread0.squashedLoads        59439                       # Number of loads squashed
system.cpu.iew.lsq.thread0.squashedStores        40976                       # Number of stores squashed
system.cpu.iew.memOrderViolationEvents             38                       # Number of memory order violations
system.cpu.iew.predictedNotTakenIncorrect         3686                       # Number of branches that were predicted not taken incorrectly
system.cpu.iew.predictedTakenIncorrect           2772                       # Number of branches that were predicted taken incorrectly
system.cpu.iew.wb_consumers                   3289368                       # num instructions consuming a value
system.cpu.iew.wb_count                       3502992                       # cumulative count of insts written-back
system.cpu.iew.wb_fanout                     0.610543                       # average fanout of values written-back
system.cpu.iew.wb_producers                   2008302                       # num instructions producing a value
system.cpu.iew.wb_rate                       1.233094                       # insts written-back per cycle
system.cpu.iew.wb_sent                        3515139                       # cumulative count of insts sent to commit
system.cpu.int_regfile_reads                  3992941                       # number of integer regfile reads
system.cpu.int_regfile_writes                 2557776                       # number of integer regfile writes
system.cpu.ipc                               0.997284                       # IPC: Instructions Per Cycle
system.cpu.ipc_total                         0.997284                       # IPC: Total IPC of All Threads
system.cpu.iq.FU_type_0::No_OpClass                62      0.00%      0.00% # Type of FU issued
system.cpu.iq.FU_type_0::IntAlu               2532470     71.58%     71.58% # Type of FU issued
system.cpu.iq.FU_type_0::IntMult                19001      0.54%     72.12% # Type of FU issued
system.cpu.iq.FU_type_0::IntDiv                   608      0.02%     72.14% # Type of FU issued
system.cpu.iq.FU_type_0::FloatAdd                 639      0.02%     72.16% # Type of FU issued
system.cpu.iq.FU_type_0::FloatCmp                 138      0.00%     72.16% # Type of FU issued
system.cpu.iq.FU_type_0::FloatCvt                1997      0.06%     72.22% # Type of FU issued
system.cpu.iq.FU_type_0::FloatMult               1044      0.03%     72.25% # Type of FU issued
system.cpu.iq.FU_type_0::FloatMultAcc            1523      0.04%     72.29% # Type of FU issued
system.cpu.iq.FU_type_0::FloatDiv                 810      0.02%     72.31% # Type of FU issued
system.cpu.iq.FU_type_0::FloatMisc               1613      0.05%     72.36% # Type of FU issued
system.cpu.iq.FU_type_0::FloatSqrt                  0      0.00%     72.36% # Type of FU issued
system.cpu.iq.FU_type_0::SimdAdd                  114      0.00%     72.36% # Type of FU issued
system.cpu.iq.FU_type_0::SimdAddAcc                 0      0.00%     72.36% # Type of FU issued
system.cpu.iq.FU_type_0::SimdAlu                  186      0.01%     72.37% # Type of FU issued
system.cpu.iq.FU_type_0::SimdCmp                  168      0.00%     72.37% # Type of FU issued
system.cpu.iq.FU_type_0::SimdCvt                    0      0.00%     72.37% # Type of FU issued
system.cpu.iq.FU_type_0::SimdMisc                 850      0.02%     72.40% # Type of FU issued
system.cpu.iq.FU_type_0::SimdMult                   0      0.00%     72.40% # Type of FU issued
system.cpu.iq.FU_type_0::SimdMultAcc                0      0.00%     72.40% # Type of FU issued
system.cpu.iq.FU_type_0::SimdShift                  0      0.00%     72.40% # Type of FU issued
system.cpu.iq.FU_type_0::SimdShiftAcc               0      0.00%     72.40% # Type of FU issued
system.cpu.iq.FU_type_0::SimdDiv                    0      0.00%     72.40% # Type of FU issued
system.cpu.iq.FU_type_0::SimdSqrt                   0      0.00%     72.40% # Type of FU issued
system.cpu.iq.FU_type_0::SimdFloatAdd               0      0.00%     72.40% # Type of FU issued
system.cpu.iq.FU_type_0::SimdFloatAlu               0      0.00%     72.40% # Type of FU issued
system.cpu.iq.FU_type_0::SimdFloatCmp               0      0.00%     72.40% # Type of FU issued
system.cpu.iq.FU_type_0::SimdFloatCvt               0      0.00%     72.40% # Type of FU issued
system.cpu.iq.FU_type_0::SimdFloatDiv               0      0.00%     72.40% # Type of FU issued
system.cpu.iq.FU_type_0::SimdFloatMisc              0      0.00%     72.40% # Type of FU issued
system.cpu.iq.FU_type_0::SimdFloatMult              0      0.00%     72.40% # Type of FU issued
system.cpu.iq.FU_type_0::SimdFloatMultAcc            0      0.00%     72.40% # Type of FU issued
system.cpu.iq.FU_type_0::SimdFloatSqrt              0      0.00%     72.40% # Type of FU issued
system.cpu.iq.FU_type_0::SimdReduceAdd              0      0.00%     72.40% # Type of FU issued
system.cpu.iq.FU_type_0::SimdReduceAlu              0      0.00%     72.40% # Type of FU issued
system.cpu.iq.FU_type_0::SimdReduceCmp              0      0.00%     72.40% # Type of FU issued
system.cpu.iq.FU_type_0::SimdFloatReduceAdd            0      0.00%     72.40% # Type of FU issued
system.cpu.iq.FU_type_0::SimdFloatReduceCmp            0      0.00%     72.40% # Type of FU issued
system.cpu.iq.FU_type_0::SimdAes                    0      0.00%     72.40% # Type of FU issued
system.cpu.iq.FU_type_0::SimdAesMix                 0      0.00%     72.40% # Type of FU issued
system.cpu.iq.FU_type_0::SimdSha1Hash               0      0.00%     72.40% # Type of FU issued
system.cpu.iq.FU_type_0::SimdSha1Hash2              0      0.00%     72.40% # Type of FU issued
system.cpu.iq.FU_type_0::SimdSha256Hash             0      0.00%     72.40% # Type of FU issued
system.cpu.iq.FU_type_0::SimdSha256Hash2            0      0.00%     72.40% # Type of FU issued
system.cpu.iq.FU_type_0::SimdShaSigma2              0      0.00%     72.40% # Type of FU issued
system.cpu.iq.FU_type_0::SimdShaSigma3              0      0.00%     72.40% # Type of FU issued
system.cpu.iq.FU_type_0::SimdPredAlu                0      0.00%     72.40% # Type of FU issued
system.cpu.iq.FU_type_0::MemRead               507670     14.35%     86.75% # Type of FU issued
system.cpu.iq.FU_type_0::MemWrite              468920     13.25%    100.00% # Type of FU issued
system.cpu.iq.FU_type_0::FloatMemRead               0      0.00%    100.00% # Type of FU issued
system.cpu.iq.FU_type_0::FloatMemWrite              0      0.00%    100.00% # Type of FU issued
system.cpu.iq.FU_type_0::IprAccess                  0      0.00%    100.00% # Type of FU issued
system.cpu.iq.FU_type_0::InstPrefetch               0      0.00%    100.00% # Type of FU issued
system.cpu.iq.FU_type_0::total                3537813                       # Type of FU issued
system.cpu.iq.fp_alu_accesses                       0                       # Number of floating point alu accesses
system.cpu.iq.fp_inst_queue_reads                   0                       # Number of floating instruction queue reads
system.cpu.iq.fp_inst_queue_wakeup_accesses            0                       # Number of floating instruction queue wakeup accesses
system.cpu.iq.fp_inst_queue_writes                  0                       # Number of floating instruction queue writes
system.cpu.iq.fu_busy_cnt                       54128                       # FU busy when requested
system.cpu.iq.fu_busy_rate                   0.015300                       # FU busy rate (busy events/executed inst)
system.cpu.iq.fu_full::No_OpClass                   0      0.00%      0.00% # attempts to use FU when none available
system.cpu.iq.fu_full::IntAlu                   26703     49.33%     49.33% # attempts to use FU when none available
system.cpu.iq.fu_full::IntMult                    681      1.26%     50.59% # attempts to use FU when none available
system.cpu.iq.fu_full::IntDiv                      39      0.07%     50.66% # attempts to use FU when none available
system.cpu.iq.fu_full::FloatAdd                     0      0.00%     50.66% # attempts to use FU when none available
system.cpu.iq.fu_full::FloatCmp                     0      0.00%     50.66% # attempts to use FU when none available
system.cpu.iq.fu_full::FloatCvt                     0      0.00%     50.66% # attempts to use FU when none available
system.cpu.iq.fu_full::FloatMult                  114      0.21%     50.87% # attempts to use FU when none available
system.cpu.iq.fu_full::FloatMultAcc               162      0.30%     51.17% # attempts to use FU when none available
system.cpu.iq.fu_full::FloatDiv                     0      0.00%     51.17% # attempts to use FU when none available
system.cpu.iq.fu_full::FloatMisc                   62      0.11%     51.29% # attempts to use FU when none available
system.cpu.iq.fu_full::FloatSqrt                    0      0.00%     51.29% # attempts to use FU when none available
system.cpu.iq.fu_full::SimdAdd                      0      0.00%     51.29% # attempts to use FU when none available
system.cpu.iq.fu_full::SimdAddAcc                   0      0.00%     51.29% # attempts to use FU when none available
system.cpu.iq.fu_full::SimdAlu                      2      0.00%     51.29% # attempts to use FU when none available
system.cpu.iq.fu_full::SimdCmp                     12      0.02%     51.31% # attempts to use FU when none available
system.cpu.iq.fu_full::SimdCvt                      0      0.00%     51.31% # attempts to use FU when none available
system.cpu.iq.fu_full::SimdMisc                     0      0.00%     51.31% # attempts to use FU when none available
system.cpu.iq.fu_full::SimdMult                     0      0.00%     51.31% # attempts to use FU when none available
system.cpu.iq.fu_full::SimdMultAcc                  0      0.00%     51.31% # attempts to use FU when none available
system.cpu.iq.fu_full::SimdShift                    0      0.00%     51.31% # attempts to use FU when none available
system.cpu.iq.fu_full::SimdShiftAcc                 0      0.00%     51.31% # attempts to use FU when none available
system.cpu.iq.fu_full::SimdDiv                      0      0.00%     51.31% # attempts to use FU when none available
system.cpu.iq.fu_full::SimdSqrt                     0      0.00%     51.31% # attempts to use FU when none available
system.cpu.iq.fu_full::SimdFloatAdd                 0      0.00%     51.31% # attempts to use FU when none available
system.cpu.iq.fu_full::SimdFloatAlu                 0      0.00%     51.31% # attempts to use FU when none available
system.cpu.iq.fu_full::SimdFloatCmp                 0      0.00%     51.31% # attempts to use FU when none available
system.cpu.iq.fu_full::SimdFloatCvt                 0      0.00%     51.31% # attempts to use FU when none available
system.cpu.iq.fu_full::SimdFloatDiv                 0      0.00%     51.31% # attempts to use FU when none available
system.cpu.iq.fu_full::SimdFloatMisc                0      0.00%     51.31% # attempts to use FU when none available
system.cpu.iq.fu_full::SimdFloatMult                0      0.00%     51.31% # attempts to use FU when none available
system.cpu.iq.fu_full::SimdFloatMultAcc             0      0.00%     51.31% # attempts to use FU when none available
system.cpu.iq.fu_full::SimdFloatSqrt                0      0.00%     51.31% # attempts to use FU when none available
system.cpu.iq.fu_full::SimdReduceAdd                0      0.00%     51.31% # attempts to use FU when none available
system.cpu.iq.fu_full::SimdReduceAlu                0      0.00%     51.31% # attempts to use FU when none available
system.cpu.iq.fu_full::SimdReduceCmp                0      0.00%     51.31% # attempts to use FU when none available
system.cpu.iq.fu_full::SimdFloatReduceAdd            0      0.00%     51.31% # attempts to use FU when none available
system.cpu.iq.fu_full::SimdFloatReduceCmp            0      0.00%     51.31% # attempts to use FU when none available
system.cpu.iq.fu_full::SimdAes                      0      0.00%     51.31% # attempts to use FU when none available
system.cpu.iq.fu_full::SimdAesMix                   0      0.00%     51.31% # attempts to use FU when none available
system.cpu.iq.fu_full::SimdSha1Hash                 0      0.00%     51.31% # attempts to use FU when none available
system.cpu.iq.fu_full::SimdSha1Hash2                0      0.00%     51.31% # attempts to use FU when none available
system.cpu.iq.fu_full::SimdSha256Hash               0      0.00%     51.31% # attempts to use FU when none available
system.cpu.iq.fu_full::SimdSha256Hash2              0      0.00%     51.31% # attempts to use FU when none available
system.cpu.iq.fu_full::SimdShaSigma2                0      0.00%     51.31% # attempts to use FU when none available
system.cpu.iq.fu_full::SimdShaSigma3                0      0.00%     51.31% # attempts to use FU when none available
system.cpu.iq.fu_full::SimdPredAlu                  0      0.00%     51.31% # attempts to use FU when none available
system.cpu.iq.fu_full::MemRead                   4826      8.92%     60.23% # attempts to use FU when none available
system.cpu.iq.fu_full::MemWrite                 21527     39.77%    100.00% # attempts to use FU when none available
system.cpu.iq.fu_full::FloatMemRead                 0      0.00%    100.00% # attempts to use FU when none available
system.cpu.iq.fu_full::FloatMemWrite                0      0.00%    100.00% # attempts to use FU when none available
system.cpu.iq.fu_full::IprAccess                    0      0.00%    100.00% # attempts to use FU when none available
system.cpu.iq.fu_full::InstPrefetch                 0      0.00%    100.00% # attempts to use FU when none available
system.cpu.iq.int_alu_accesses                3556724                       # Number of integer alu accesses
system.cpu.iq.int_inst_queue_reads            9800487                       # Number of integer instruction queue reads
system.cpu.iq.int_inst_queue_wakeup_accesses      3471809                       # Number of integer instruction queue wakeup accesses
system.cpu.iq.int_inst_queue_writes           3822092                       # Number of integer instruction queue writes
system.cpu.iq.iqInstsAdded                    3565215                       # Number of instructions added to the IQ (excludes non-spec)
system.cpu.iq.iqInstsIssued                   3537813                       # Number of instructions issued
system.cpu.iq.iqNonSpecInstsAdded                 540                       # Number of non-speculative instructions added to the IQ
system.cpu.iq.iqSquashedInstsExamined          295410                       # Number of squashed instructions iterated over during squash; mainly for profiling
system.cpu.iq.iqSquashedInstsIssued              1452                       # Number of squashed instructions issued
system.cpu.iq.iqSquashedNonSpecRemoved            152                       # Number of squashed non-spec instructions that were removed
system.cpu.iq.iqSquashedOperandsExamined       129802                       # Number of squashed operands that are examined and possibly removed from graph
system.cpu.iq.issued_per_cycle::samples       2737330                       # Number of insts issued each cycle
system.cpu.iq.issued_per_cycle::mean         1.292432                       # Number of insts issued each cycle
system.cpu.iq.issued_per_cycle::stdev        2.060864                       # Number of insts issued each cycle
system.cpu.iq.issued_per_cycle::underflows            0      0.00%      0.00% # Number of insts issued each cycle
system.cpu.iq.issued_per_cycle::0             1701475     62.16%     62.16% # Number of insts issued each cycle
system.cpu.iq.issued_per_cycle::1              205710      7.51%     69.67% # Number of insts issued each cycle
system.cpu.iq.issued_per_cycle::2              197651      7.22%     76.89% # Number of insts issued each cycle
system.cpu.iq.issued_per_cycle::3              195035      7.13%     84.02% # Number of insts issued each cycle
system.cpu.iq.issued_per_cycle::4              166491      6.08%     90.10% # Number of insts issued each cycle
system.cpu.iq.issued_per_cycle::5               80354      2.94%     93.04% # Number of insts issued each cycle
system.cpu.iq.issued_per_cycle::6               94439      3.45%     96.49% # Number of insts issued each cycle
system.cpu.iq.issued_per_cycle::7               52072      1.90%     98.39% # Number of insts issued each cycle
system.cpu.iq.issued_per_cycle::8               44103      1.61%    100.00% # Number of insts issued each cycle
system.cpu.iq.issued_per_cycle::overflows            0      0.00%    100.00% # Number of insts issued each cycle
system.cpu.iq.issued_per_cycle::min_value            0                       # Number of insts issued each cycle
system.cpu.iq.issued_per_cycle::max_value            8                       # Number of insts issued each cycle
system.cpu.iq.issued_per_cycle::total         2737330                       # Number of insts issued each cycle
system.cpu.iq.rate                           1.245351                       # Inst issue rate
system.cpu.iq.vec_alu_accesses                  35155                       # Number of vector alu accesses
system.cpu.iq.vec_inst_queue_reads              68049                       # Number of vector instruction queue reads
system.cpu.iq.vec_inst_queue_wakeup_accesses        31183                       # Number of vector instruction queue wakeup accesses
system.cpu.iq.vec_inst_queue_writes             39109                       # Number of vector instruction queue writes
system.cpu.itb.accesses                             0                       # DTB accesses
system.cpu.itb.align_faults                         0                       # Number of TLB faults due to alignment restrictions
system.cpu.itb.domain_faults                        0                       # Number of TLB faults due to domain restrictions
system.cpu.itb.flush_entries                        0                       # Number of entries that have been flushed from TLB
system.cpu.itb.flush_tlb                            0                       # Number of times complete TLB was flushed
system.cpu.itb.flush_tlb_asid                       0                       # Number of times TLB was flushed by ASID
system.cpu.itb.flush_tlb_mva                        0                       # Number of times TLB was flushed by MVA
system.cpu.itb.flush_tlb_mva_asid                   0                       # Number of times TLB was flushed by MVA & ASID
system.cpu.itb.hits                                 0                       # DTB hits
system.cpu.itb.inst_accesses                        0                       # ITB inst accesses
system.cpu.itb.inst_hits                            0                       # ITB inst hits
system.cpu.itb.inst_misses                          0                       # ITB inst misses
system.cpu.itb.misses                               0                       # DTB misses
system.cpu.itb.perms_faults                         0                       # Number of TLB faults due to permissions restrictions
system.cpu.itb.prefetch_faults                      0                       # Number of TLB faults due to prefetch
system.cpu.itb.read_accesses                        0                       # DTB read accesses
system.cpu.itb.read_hits                            0                       # DTB read hits
system.cpu.itb.read_misses                          0                       # DTB read misses
system.cpu.itb.stage2_mmu.stage2_tlb.accesses            0                       # DTB accesses
system.cpu.itb.stage2_mmu.stage2_tlb.align_faults            0                       # Number of TLB faults due to alignment restrictions
system.cpu.itb.stage2_mmu.stage2_tlb.domain_faults            0                       # Number of TLB faults due to domain restrictions
system.cpu.itb.stage2_mmu.stage2_tlb.flush_entries            0                       # Number of entries that have been flushed from TLB
system.cpu.itb.stage2_mmu.stage2_tlb.flush_tlb            0                       # Number of times complete TLB was flushed
system.cpu.itb.stage2_mmu.stage2_tlb.flush_tlb_asid            0                       # Number of times TLB was flushed by ASID
system.cpu.itb.stage2_mmu.stage2_tlb.flush_tlb_mva            0                       # Number of times TLB was flushed by MVA
system.cpu.itb.stage2_mmu.stage2_tlb.flush_tlb_mva_asid            0                       # Number of times TLB was flushed by MVA & ASID
system.cpu.itb.stage2_mmu.stage2_tlb.hits            0                       # DTB hits
system.cpu.itb.stage2_mmu.stage2_tlb.inst_accesses            0                       # ITB inst accesses
system.cpu.itb.stage2_mmu.stage2_tlb.inst_hits            0                       # ITB inst hits
system.cpu.itb.stage2_mmu.stage2_tlb.inst_misses            0                       # ITB inst misses
system.cpu.itb.stage2_mmu.stage2_tlb.misses            0                       # DTB misses
system.cpu.itb.stage2_mmu.stage2_tlb.perms_faults            0                       # Number of TLB faults due to permissions restrictions
system.cpu.itb.stage2_mmu.stage2_tlb.prefetch_faults            0                       # Number of TLB faults due to prefetch
system.cpu.itb.stage2_mmu.stage2_tlb.read_accesses            0                       # DTB read accesses
system.cpu.itb.stage2_mmu.stage2_tlb.read_hits            0                       # DTB read hits
system.cpu.itb.stage2_mmu.stage2_tlb.read_misses            0                       # DTB read misses
system.cpu.itb.stage2_mmu.stage2_tlb.walker.walkRequestOrigin_Requested::Data            0                       # Table walker requests started/completed, data/inst
system.cpu.itb.stage2_mmu.stage2_tlb.walker.walkRequestOrigin_Requested::Inst            0                       # Table walker requests started/completed, data/inst
system.cpu.itb.stage2_mmu.stage2_tlb.walker.walkRequestOrigin_Requested::total            0                       # Table walker requests started/completed, data/inst
system.cpu.itb.stage2_mmu.stage2_tlb.walker.walkRequestOrigin_Completed::Data            0                       # Table walker requests started/completed, data/inst
system.cpu.itb.stage2_mmu.stage2_tlb.walker.walkRequestOrigin_Completed::Inst            0                       # Table walker requests started/completed, data/inst
system.cpu.itb.stage2_mmu.stage2_tlb.walker.walkRequestOrigin_Completed::total            0                       # Table walker requests started/completed, data/inst
system.cpu.itb.stage2_mmu.stage2_tlb.walker.walkRequestOrigin::total            0                       # Table walker requests started/completed, data/inst
system.cpu.itb.stage2_mmu.stage2_tlb.walker.walks            0                       # Table walker walks requested
system.cpu.itb.stage2_mmu.stage2_tlb.write_accesses            0                       # DTB write accesses
system.cpu.itb.stage2_mmu.stage2_tlb.write_hits            0                       # DTB write hits
system.cpu.itb.stage2_mmu.stage2_tlb.write_misses            0                       # DTB write misses
system.cpu.itb.walker.walkRequestOrigin_Requested::Data            0                       # Table walker requests started/completed, data/inst
system.cpu.itb.walker.walkRequestOrigin_Requested::Inst            0                       # Table walker requests started/completed, data/inst
system.cpu.itb.walker.walkRequestOrigin_Requested::total            0                       # Table walker requests started/completed, data/inst
system.cpu.itb.walker.walkRequestOrigin_Completed::Data            0                       # Table walker requests started/completed, data/inst
system.cpu.itb.walker.walkRequestOrigin_Completed::Inst            0                       # Table walker requests started/completed, data/inst
system.cpu.itb.walker.walkRequestOrigin_Completed::total            0                       # Table walker requests started/completed, data/inst
system.cpu.itb.walker.walkRequestOrigin::total            0                       # Table walker requests started/completed, data/inst
system.cpu.itb.walker.walks                         0                       # Table walker walks requested
system.cpu.itb.write_accesses                       0                       # DTB write accesses
system.cpu.itb.write_hits                           0                       # DTB write hits
system.cpu.itb.write_misses                         0                       # DTB write misses
system.cpu.memDep0.conflictingLoads              5117                       # Number of conflicting loads.
system.cpu.memDep0.conflictingStores             4908                       # Number of conflicting stores.
system.cpu.memDep0.insertedLoads               507544                       # Number of loads inserted to the mem dependence unit.
system.cpu.memDep0.insertedStores              473288                       # Number of stores inserted to the mem dependence unit.
system.cpu.misc_regfile_reads                 2447254                       # number of misc regfile reads
system.cpu.misc_regfile_writes                   6559                       # number of misc regfile writes
system.cpu.numCycles                          2840816                       # number of cpu cycles simulated
system.cpu.numWorkItemsCompleted                    0                       # number of work items this cpu completed
system.cpu.numWorkItemsStarted                      0                       # number of work items this cpu started
system.cpu.rename.BlockCycles                   77536                       # Number of cycles rename is blocking
system.cpu.rename.CommittedMaps               3318812                       # Number of HB maps that are committed
system.cpu.rename.IQFullEvents                   8670                       # Number of times rename has blocked due to IQ full
system.cpu.rename.IdleCycles                   428031                       # Number of cycles rename is idle
system.cpu.rename.LQFullEvents                   3276                       # Number of times rename has blocked due to LQ full
system.cpu.rename.ROBFullEvents                   578                       # Number of times rename has blocked due to ROB full
system.cpu.rename.RenameLookups               5395559                       # Number of register rename lookups that rename has made
system.cpu.rename.RenamedInsts                3606025                       # Number of instructions processed by rename
system.cpu.rename.RenamedOperands             3644700                       # Number of destination operands rename has renamed
system.cpu.rename.RunCycles                    589234                       # Number of cycles rename is running
system.cpu.rename.SQFullEvents                 275947                       # Number of times rename has blocked due to SQ full
system.cpu.rename.SquashCycles                   8870                       # Number of cycles rename is squashing
system.cpu.rename.UnblockCycles                311564                       # Number of cycles rename is unblocking
system.cpu.rename.UndoneMaps                   325888                       # Number of HB maps that are undone due to squashing
system.cpu.rename.int_rename_lookups          4076236                       # Number of integer rename lookups
system.cpu.rename.serializeStallCycles        1322095                       # count of cycles rename stalled for serializing inst
system.cpu.rename.serializingInsts              24486                       # count of serializing insts renamed
system.cpu.rename.skidInsts                    225978                       # count of insts added to the skid buffer
system.cpu.rename.tempSerializingInsts            539                       # count of temporary serializing insts renamed
system.cpu.rename.vec_rename_lookups            35702                       # Number of vector rename lookups
system.cpu.rob.rob_reads                      6035729                       # The number of ROB reads
system.cpu.rob.rob_writes                     7173116                       # The number of ROB writes
system.cpu.timesIdled                            2684                       # Number of times that the entire CPU went into an idle state and unscheduled itself
system.cpu.vec_regfile_reads                    31959                       # number of vector regfile reads
system.cpu.vec_regfile_writes                   10180                       # number of vector regfile writes
system.cpu.workload.numSyscalls                   109                       # Number of system calls
system.membus.snoop_filter.hit_multi_requests            0                       # Number of requests hitting in the snoop filter with multiple (>1) holders of the requested data.
system.membus.snoop_filter.hit_multi_snoops            0                       # Number of snoops hitting in the snoop filter with multiple (>1) holders of the requested data.
system.membus.snoop_filter.hit_single_requests          448                       # Number of requests hitting in the snoop filter with a single holder of the requested data.
system.membus.snoop_filter.hit_single_snoops            0                       # Number of snoops hitting in the snoop filter with a single holder of the requested data.
system.membus.snoop_filter.tot_requests         27840                       # Total number of requests made to the snoop filter.
system.membus.snoop_filter.tot_snoops               0                       # Total number of snoops made to the snoop filter.
system.tol2bus.snoop_filter.hit_multi_requests            1                       # Number of requests hitting in the snoop filter with multiple (>1) holders of the requested data.
system.tol2bus.snoop_filter.hit_multi_snoops            0                       # Number of snoops hitting in the snoop filter with multiple (>1) holders of the requested data.
system.tol2bus.snoop_filter.hit_single_requests        30688                       # Number of requests hitting in the snoop filter with a single holder of the requested data.
system.tol2bus.snoop_filter.hit_single_snoops            7                       # Number of snoops hitting in the snoop filter with a single holder of the requested data.
system.tol2bus.snoop_filter.tot_requests        62657                       # Total number of requests made to the snoop filter.
system.tol2bus.snoop_filter.tot_snoops              7                       # Total number of snoops made to the snoop filter.
system.membus.trans_dist::ReadResp               1878                       # Transaction distribution
system.membus.trans_dist::WritebackDirty          307                       # Transaction distribution
system.membus.trans_dist::CleanEvict              141                       # Transaction distribution
system.membus.trans_dist::ReadExReq              8399                       # Transaction distribution
system.membus.trans_dist::ReadExResp             8399                       # Transaction distribution
system.membus.trans_dist::ReadSharedReq          1878                       # Transaction distribution
system.membus.trans_dist::InvalidateReq         17115                       # Transaction distribution
system.membus.pkt_count_system.l2.mem_side::system.mem_ctrls.port        38117                       # Packet count per connected master and slave (bytes)
system.membus.pkt_count::total                  38117                       # Packet count per connected master and slave (bytes)
system.membus.pkt_size_system.l2.mem_side::system.mem_ctrls.port       677376                       # Cumulative packet size per connected master and slave (bytes)
system.membus.pkt_size::total                  677376                       # Cumulative packet size per connected master and slave (bytes)
system.membus.snoops                                0                       # Total snoops (count)
system.membus.snoopTraffic                          0                       # Total snoop traffic (bytes)
system.membus.snoop_fanout::samples             27392                       # Request fanout histogram
system.membus.snoop_fanout::mean                    0                       # Request fanout histogram
system.membus.snoop_fanout::stdev                   0                       # Request fanout histogram
system.membus.snoop_fanout::underflows              0      0.00%      0.00% # Request fanout histogram
system.membus.snoop_fanout::0                   27392    100.00%    100.00% # Request fanout histogram
system.membus.snoop_fanout::1                       0      0.00%    100.00% # Request fanout histogram
system.membus.snoop_fanout::overflows               0      0.00%    100.00% # Request fanout histogram
system.membus.snoop_fanout::min_value               0                       # Request fanout histogram
system.membus.snoop_fanout::max_value               0                       # Request fanout histogram
system.membus.snoop_fanout::total               27392                       # Request fanout histogram
system.membus.reqLayer0.occupancy            32581500                       # Layer occupancy (ticks)
system.membus.reqLayer0.utilization               2.3                       # Layer utilization (%)
system.membus.respLayer1.occupancy           54594250                       # Layer occupancy (ticks)
system.membus.respLayer1.utilization              3.8                       # Layer utilization (%)
system.membus.power_state.pwrStateResidencyTicks::UNDEFINED   1420407500                       # Cumulative time (in ticks) in various power states
system.tol2bus.trans_dist::ReadResp              6266                       # Transaction distribution
system.tol2bus.trans_dist::WritebackDirty        25606                       # Transaction distribution
system.tol2bus.trans_dist::WritebackClean         4956                       # Transaction distribution
system.tol2bus.trans_dist::CleanEvict             581                       # Transaction distribution
system.tol2bus.trans_dist::ReadExReq             8554                       # Transaction distribution
system.tol2bus.trans_dist::ReadExResp            8554                       # Transaction distribution
system.tol2bus.trans_dist::ReadCleanReq          5213                       # Transaction distribution
system.tol2bus.trans_dist::ReadSharedReq         1054                       # Transaction distribution
system.tol2bus.trans_dist::InvalidateReq        17148                       # Transaction distribution
system.tol2bus.trans_dist::InvalidateResp        17148                       # Transaction distribution
system.tol2bus.pkt_count_system.cpu.icache.mem_side::system.l2.cpu_side        15381                       # Packet count per connected master and slave (bytes)
system.tol2bus.pkt_count_system.cpu.dcache.mem_side::system.l2.cpu_side        79244                       # Packet count per connected master and slave (bytes)
system.tol2bus.pkt_count::total                 94625                       # Packet count per connected master and slave (bytes)
system.tol2bus.pkt_size_system.cpu.icache.mem_side::system.l2.cpu_side       650752                       # Cumulative packet size per connected master and slave (bytes)
system.tol2bus.pkt_size_system.cpu.dcache.mem_side::system.l2.cpu_side      2234048                       # Cumulative packet size per connected master and slave (bytes)
system.tol2bus.pkt_size::total                2884800                       # Cumulative packet size per connected master and slave (bytes)
system.tol2bus.snoops                             455                       # Total snoops (count)
system.tol2bus.snoopTraffic                     19648                       # Total snoop traffic (bytes)
system.tol2bus.snoop_fanout::samples            32424                       # Request fanout histogram
system.tol2bus.snoop_fanout::mean            0.000247                       # Request fanout histogram
system.tol2bus.snoop_fanout::stdev           0.015706                       # Request fanout histogram
system.tol2bus.snoop_fanout::underflows             0      0.00%      0.00% # Request fanout histogram
system.tol2bus.snoop_fanout::0                  32416     99.98%     99.98% # Request fanout histogram
system.tol2bus.snoop_fanout::1                      8      0.02%    100.00% # Request fanout histogram
system.tol2bus.snoop_fanout::2                      0      0.00%    100.00% # Request fanout histogram
system.tol2bus.snoop_fanout::overflows              0      0.00%    100.00% # Request fanout histogram
system.tol2bus.snoop_fanout::min_value              0                       # Request fanout histogram
system.tol2bus.snoop_fanout::max_value              1                       # Request fanout histogram
system.tol2bus.snoop_fanout::total              32424                       # Request fanout histogram
system.tol2bus.reqLayer0.occupancy           61583500                       # Layer occupancy (ticks)
system.tol2bus.reqLayer0.utilization              4.3                       # Layer utilization (%)
system.tol2bus.respLayer1.occupancy          22987497                       # Layer occupancy (ticks)
system.tol2bus.respLayer1.utilization             1.6                       # Layer utilization (%)
system.tol2bus.respLayer0.occupancy           7818499                       # Layer occupancy (ticks)
system.tol2bus.respLayer0.utilization             0.6                       # Layer utilization (%)
system.tol2bus.power_state.pwrStateResidencyTicks::UNDEFINED   1420407500                       # Cumulative time (in ticks) in various power states
system.voltage_domain.voltage                       1                       # Voltage in Volts
system.clk_domain.clock                          1000                       # Clock period in ticks
system.l2.demand_hits::.cpu.inst                 3951                       # number of demand (read+write) hits
system.l2.demand_hits::.cpu.data                  592                       # number of demand (read+write) hits
system.l2.demand_hits::total                     4543                       # number of demand (read+write) hits
system.l2.overall_hits::.cpu.inst                3951                       # number of overall hits
system.l2.overall_hits::.cpu.data                 592                       # number of overall hits
system.l2.overall_hits::total                    4543                       # number of overall hits
system.l2.demand_misses::.cpu.inst               1262                       # number of demand (read+write) misses
system.l2.demand_misses::.cpu.data               9016                       # number of demand (read+write) misses
system.l2.demand_misses::total                  10278                       # number of demand (read+write) misses
system.l2.overall_misses::.cpu.inst              1262                       # number of overall misses
system.l2.overall_misses::.cpu.data              9016                       # number of overall misses
system.l2.overall_misses::total                 10278                       # number of overall misses
system.l2.demand_miss_latency::.cpu.inst    100499000                       # number of demand (read+write) miss cycles
system.l2.demand_miss_latency::.cpu.data    703302000                       # number of demand (read+write) miss cycles
system.l2.demand_miss_latency::total        803801000                       # number of demand (read+write) miss cycles
system.l2.overall_miss_latency::.cpu.inst    100499000                       # number of overall miss cycles
system.l2.overall_miss_latency::.cpu.data    703302000                       # number of overall miss cycles
system.l2.overall_miss_latency::total       803801000                       # number of overall miss cycles
system.l2.demand_accesses::.cpu.inst             5213                       # number of demand (read+write) accesses
system.l2.demand_accesses::.cpu.data             9608                       # number of demand (read+write) accesses
system.l2.demand_accesses::total                14821                       # number of demand (read+write) accesses
system.l2.overall_accesses::.cpu.inst            5213                       # number of overall (read+write) accesses
system.l2.overall_accesses::.cpu.data            9608                       # number of overall (read+write) accesses
system.l2.overall_accesses::total               14821                       # number of overall (read+write) accesses
system.l2.demand_miss_rate::.cpu.inst        0.242087                       # miss rate for demand accesses
system.l2.demand_miss_rate::.cpu.data        0.938385                       # miss rate for demand accesses
system.l2.demand_miss_rate::total            0.693475                       # miss rate for demand accesses
system.l2.overall_miss_rate::.cpu.inst       0.242087                       # miss rate for overall accesses
system.l2.overall_miss_rate::.cpu.data       0.938385                       # miss rate for overall accesses
system.l2.overall_miss_rate::total           0.693475                       # miss rate for overall accesses
system.l2.demand_avg_miss_latency::.cpu.inst 79634.706815                       # average overall miss latency
system.l2.demand_avg_miss_latency::.cpu.data 78005.989352                       # average overall miss latency
system.l2.demand_avg_miss_latency::total 78205.973925                       # average overall miss latency
system.l2.overall_avg_miss_latency::.cpu.inst 79634.706815                       # average overall miss latency
system.l2.overall_avg_miss_latency::.cpu.data 78005.989352                       # average overall miss latency
system.l2.overall_avg_miss_latency::total 78205.973925                       # average overall miss latency
system.l2.blocked_cycles::no_mshrs                  0                       # number of cycles access was blocked
system.l2.blocked_cycles::no_targets                0                       # number of cycles access was blocked
system.l2.blocked::no_mshrs                         0                       # number of cycles access was blocked
system.l2.blocked::no_targets                       0                       # number of cycles access was blocked
system.l2.avg_blocked_cycles::no_mshrs            nan                       # average number of cycles each access was blocked
system.l2.avg_blocked_cycles::no_targets          nan                       # average number of cycles each access was blocked
system.l2.writebacks::.writebacks                 307                       # number of writebacks
system.l2.writebacks::total                       307                       # number of writebacks
system.l2.demand_mshr_misses::.cpu.inst          1262                       # number of demand (read+write) MSHR misses
system.l2.demand_mshr_misses::.cpu.data          9016                       # number of demand (read+write) MSHR misses
system.l2.demand_mshr_misses::total             10278                       # number of demand (read+write) MSHR misses
system.l2.overall_mshr_misses::.cpu.inst         1262                       # number of overall MSHR misses
system.l2.overall_mshr_misses::.cpu.data         9016                       # number of overall MSHR misses
system.l2.overall_mshr_misses::total            10278                       # number of overall MSHR misses
system.l2.demand_mshr_miss_latency::.cpu.inst     87886505                       # number of demand (read+write) MSHR miss cycles
system.l2.demand_mshr_miss_latency::.cpu.data    613141002                       # number of demand (read+write) MSHR miss cycles
system.l2.demand_mshr_miss_latency::total    701027507                       # number of demand (read+write) MSHR miss cycles
system.l2.overall_mshr_miss_latency::.cpu.inst     87886505                       # number of overall MSHR miss cycles
system.l2.overall_mshr_miss_latency::.cpu.data    613141002                       # number of overall MSHR miss cycles
system.l2.overall_mshr_miss_latency::total    701027507                       # number of overall MSHR miss cycles
system.l2.demand_mshr_miss_rate::.cpu.inst     0.242087                       # mshr miss rate for demand accesses
system.l2.demand_mshr_miss_rate::.cpu.data     0.938385                       # mshr miss rate for demand accesses
system.l2.demand_mshr_miss_rate::total       0.693475                       # mshr miss rate for demand accesses
system.l2.overall_mshr_miss_rate::.cpu.inst     0.242087                       # mshr miss rate for overall accesses
system.l2.overall_mshr_miss_rate::.cpu.data     0.938385                       # mshr miss rate for overall accesses
system.l2.overall_mshr_miss_rate::total      0.693475                       # mshr miss rate for overall accesses
system.l2.demand_avg_mshr_miss_latency::.cpu.inst 69640.653724                       # average overall mshr miss latency
system.l2.demand_avg_mshr_miss_latency::.cpu.data 68005.878660                       # average overall mshr miss latency
system.l2.demand_avg_mshr_miss_latency::total 68206.607025                       # average overall mshr miss latency
system.l2.overall_avg_mshr_miss_latency::.cpu.inst 69640.653724                       # average overall mshr miss latency
system.l2.overall_avg_mshr_miss_latency::.cpu.data 68005.878660                       # average overall mshr miss latency
system.l2.overall_avg_mshr_miss_latency::total 68206.607025                       # average overall mshr miss latency
system.l2.replacements                            455                       # number of replacements
system.l2.WritebackDirty_hits::.writebacks        25299                       # number of WritebackDirty hits
system.l2.WritebackDirty_hits::total            25299                       # number of WritebackDirty hits
system.l2.WritebackDirty_accesses::.writebacks        25299                       # number of WritebackDirty accesses(hits+misses)
system.l2.WritebackDirty_accesses::total        25299                       # number of WritebackDirty accesses(hits+misses)
system.l2.WritebackClean_hits::.writebacks         4955                       # number of WritebackClean hits
system.l2.WritebackClean_hits::total             4955                       # number of WritebackClean hits
system.l2.WritebackClean_accesses::.writebacks         4955                       # number of WritebackClean accesses(hits+misses)
system.l2.WritebackClean_accesses::total         4955                       # number of WritebackClean accesses(hits+misses)
system.l2.ReadExReq_hits::.cpu.data               155                       # number of ReadExReq hits
system.l2.ReadExReq_hits::total                   155                       # number of ReadExReq hits
system.l2.ReadExReq_misses::.cpu.data            8399                       # number of ReadExReq misses
system.l2.ReadExReq_misses::total                8399                       # number of ReadExReq misses
system.l2.ReadExReq_miss_latency::.cpu.data    654843000                       # number of ReadExReq miss cycles
system.l2.ReadExReq_miss_latency::total     654843000                       # number of ReadExReq miss cycles
system.l2.ReadExReq_accesses::.cpu.data          8554                       # number of ReadExReq accesses(hits+misses)
system.l2.ReadExReq_accesses::total              8554                       # number of ReadExReq accesses(hits+misses)
system.l2.ReadExReq_miss_rate::.cpu.data     0.981880                       # miss rate for ReadExReq accesses
system.l2.ReadExReq_miss_rate::total         0.981880                       # miss rate for ReadExReq accesses
system.l2.ReadExReq_avg_miss_latency::.cpu.data 77966.781760                       # average ReadExReq miss latency
system.l2.ReadExReq_avg_miss_latency::total 77966.781760                       # average ReadExReq miss latency
system.l2.ReadExReq_mshr_misses::.cpu.data         8399                       # number of ReadExReq MSHR misses
system.l2.ReadExReq_mshr_misses::total           8399                       # number of ReadExReq MSHR misses
system.l2.ReadExReq_mshr_miss_latency::.cpu.data    570852002                       # number of ReadExReq MSHR miss cycles
system.l2.ReadExReq_mshr_miss_latency::total    570852002                       # number of ReadExReq MSHR miss cycles
system.l2.ReadExReq_mshr_miss_rate::.cpu.data     0.981880                       # mshr miss rate for ReadExReq accesses
system.l2.ReadExReq_mshr_miss_rate::total     0.981880                       # mshr miss rate for ReadExReq accesses
system.l2.ReadExReq_avg_mshr_miss_latency::.cpu.data 67966.662936                       # average ReadExReq mshr miss latency
system.l2.ReadExReq_avg_mshr_miss_latency::total 67966.662936                       # average ReadExReq mshr miss latency
system.l2.ReadCleanReq_hits::.cpu.inst           3951                       # number of ReadCleanReq hits
system.l2.ReadCleanReq_hits::total               3951                       # number of ReadCleanReq hits
system.l2.ReadCleanReq_misses::.cpu.inst         1262                       # number of ReadCleanReq misses
system.l2.ReadCleanReq_misses::total             1262                       # number of ReadCleanReq misses
system.l2.ReadCleanReq_miss_latency::.cpu.inst    100499000                       # number of ReadCleanReq miss cycles
system.l2.ReadCleanReq_miss_latency::total    100499000                       # number of ReadCleanReq miss cycles
system.l2.ReadCleanReq_accesses::.cpu.inst         5213                       # number of ReadCleanReq accesses(hits+misses)
system.l2.ReadCleanReq_accesses::total           5213                       # number of ReadCleanReq accesses(hits+misses)
system.l2.ReadCleanReq_miss_rate::.cpu.inst     0.242087                       # miss rate for ReadCleanReq accesses
system.l2.ReadCleanReq_miss_rate::total      0.242087                       # miss rate for ReadCleanReq accesses
system.l2.ReadCleanReq_avg_miss_latency::.cpu.inst 79634.706815                       # average ReadCleanReq miss latency
system.l2.ReadCleanReq_avg_miss_latency::total 79634.706815                       # average ReadCleanReq miss latency
system.l2.ReadCleanReq_mshr_misses::.cpu.inst         1262                       # number of ReadCleanReq MSHR misses
system.l2.ReadCleanReq_mshr_misses::total         1262                       # number of ReadCleanReq MSHR misses
system.l2.ReadCleanReq_mshr_miss_latency::.cpu.inst     87886505                       # number of ReadCleanReq MSHR miss cycles
system.l2.ReadCleanReq_mshr_miss_latency::total     87886505                       # number of ReadCleanReq MSHR miss cycles
[...]
system.cpu.dcache.demand_accesses::.cpu.data       917592                       # number of demand (read+write) accesses
system.cpu.dcache.demand_accesses::total       917592                       # number of demand (read+write) accesses
system.cpu.dcache.overall_accesses::.cpu.data       917650                       # number of overall (read+write) accesses
system.cpu.dcache.overall_accesses::total       917650                       # number of overall (read+write) accesses
system.cpu.dcache.demand_miss_rate::.cpu.data     0.057467                       # miss rate for demand accesses
system.cpu.dcache.demand_miss_rate::total     0.057467                       # miss rate for demand accesses
system.cpu.dcache.overall_miss_rate::.cpu.data     0.057470                       # miss rate for overall accesses
system.cpu.dcache.overall_miss_rate::total     0.057470                       # miss rate for overall accesses
system.cpu.dcache.demand_avg_miss_latency::.cpu.data 53894.186987                       # average overall miss latency
system.cpu.dcache.demand_avg_miss_latency::total 53894.186987                       # average overall miss latency
system.cpu.dcache.overall_avg_miss_latency::.cpu.data 53888.055331                       # average overall miss latency
system.cpu.dcache.overall_avg_miss_latency::total 53888.055331                       # average overall miss latency
system.cpu.dcache.blocked_cycles::no_mshrs       264681                       # number of cycles access was blocked
system.cpu.dcache.blocked_cycles::no_targets          490                       # number of cycles access was blocked
system.cpu.dcache.blocked::no_mshrs             16123                       # number of cycles access was blocked
system.cpu.dcache.blocked::no_targets               1                       # number of cycles access was blocked
system.cpu.dcache.avg_blocked_cycles::no_mshrs    16.416362                       # average number of cycles each access was blocked
system.cpu.dcache.avg_blocked_cycles::no_targets          490                       # average number of cycles each access was blocked
system.cpu.dcache.writebacks::.writebacks        25299                       # number of writebacks
system.cpu.dcache.writebacks::total             25299                       # number of writebacks
system.cpu.dcache.demand_mshr_hits::.cpu.data        25980                       # number of demand (read+write) MSHR hits
system.cpu.dcache.demand_mshr_hits::total        25980                       # number of demand (read+write) MSHR hits
system.cpu.dcache.overall_mshr_hits::.cpu.data        25980                       # number of overall MSHR hits
system.cpu.dcache.overall_mshr_hits::total        25980                       # number of overall MSHR hits
system.cpu.dcache.demand_mshr_misses::.cpu.data        26751                       # number of demand (read+write) MSHR misses
system.cpu.dcache.demand_mshr_misses::total        26751                       # number of demand (read+write) MSHR misses
system.cpu.dcache.overall_mshr_misses::.cpu.data        26753                       # number of overall MSHR misses
system.cpu.dcache.overall_mshr_misses::total        26753                       # number of overall MSHR misses
system.cpu.dcache.demand_mshr_miss_latency::.cpu.data   1268683250                       # number of demand (read+write) MSHR miss cycles
system.cpu.dcache.demand_mshr_miss_latency::total   1268683250                       # number of demand (read+write) MSHR miss cycles
system.cpu.dcache.overall_mshr_miss_latency::.cpu.data   1268867750                       # number of overall MSHR miss cycles
system.cpu.dcache.overall_mshr_miss_latency::total   1268867750                       # number of overall MSHR miss cycles
system.cpu.dcache.demand_mshr_miss_rate::.cpu.data     0.029153                       # mshr miss rate for demand accesses
system.cpu.dcache.demand_mshr_miss_rate::total     0.029153                       # mshr miss rate for demand accesses
system.cpu.dcache.overall_mshr_miss_rate::.cpu.data     0.029154                       # mshr miss rate for overall accesses
system.cpu.dcache.overall_mshr_miss_rate::total     0.029154                       # mshr miss rate for overall accesses
system.cpu.dcache.demand_avg_mshr_miss_latency::.cpu.data 47425.638294                       # average overall mshr miss latency
system.cpu.dcache.demand_avg_mshr_miss_latency::total 47425.638294                       # average overall mshr miss latency
system.cpu.dcache.overall_avg_mshr_miss_latency::.cpu.data 47428.989272                       # average overall mshr miss latency
system.cpu.dcache.overall_avg_mshr_miss_latency::total 47428.989272                       # average overall mshr miss latency
system.cpu.dcache.replacements                  25732                       # number of replacements
system.cpu.dcache.ReadReq_hits::.cpu.data       480235                       # number of ReadReq hits
system.cpu.dcache.ReadReq_hits::total          480235                       # number of ReadReq hits
system.cpu.dcache.ReadReq_misses::.cpu.data         2832                       # number of ReadReq misses
system.cpu.dcache.ReadReq_misses::total          2832                       # number of ReadReq misses
system.cpu.dcache.ReadReq_miss_latency::.cpu.data    151005000                       # number of ReadReq miss cycles
system.cpu.dcache.ReadReq_miss_latency::total    151005000                       # number of ReadReq miss cycles
system.cpu.dcache.ReadReq_accesses::.cpu.data       483067                       # number of ReadReq accesses(hits+misses)
system.cpu.dcache.ReadReq_accesses::total       483067                       # number of ReadReq accesses(hits+misses)
system.cpu.dcache.ReadReq_miss_rate::.cpu.data     0.005863                       # miss rate for ReadReq accesses
system.cpu.dcache.ReadReq_miss_rate::total     0.005863                       # miss rate for ReadReq accesses
system.cpu.dcache.ReadReq_avg_miss_latency::.cpu.data 53320.974576                       # average ReadReq miss latency
system.cpu.dcache.ReadReq_avg_miss_latency::total 53320.974576                       # average ReadReq miss latency
system.cpu.dcache.ReadReq_mshr_hits::.cpu.data         1782                       # number of ReadReq MSHR hits
system.cpu.dcache.ReadReq_mshr_hits::total         1782                       # number of ReadReq MSHR hits
system.cpu.dcache.ReadReq_mshr_misses::.cpu.data         1050                       # number of ReadReq MSHR misses
system.cpu.dcache.ReadReq_mshr_misses::total         1050                       # number of ReadReq MSHR misses
system.cpu.dcache.ReadReq_mshr_miss_latency::.cpu.data     54509500                       # number of ReadReq MSHR miss cycles
system.cpu.dcache.ReadReq_mshr_miss_latency::total     54509500                       # number of ReadReq MSHR miss cycles
system.cpu.dcache.ReadReq_mshr_miss_rate::.cpu.data     0.002174                       # mshr miss rate for ReadReq accesses
system.cpu.dcache.ReadReq_mshr_miss_rate::total     0.002174                       # mshr miss rate for ReadReq accesses
system.cpu.dcache.ReadReq_avg_mshr_miss_latency::.cpu.data 51913.809524                       # average ReadReq mshr miss latency
system.cpu.dcache.ReadReq_avg_mshr_miss_latency::total 51913.809524                       # average ReadReq mshr miss latency
system.cpu.dcache.WriteReq_hits::.cpu.data       384338                       # number of WriteReq hits
system.cpu.dcache.WriteReq_hits::total         384338                       # number of WriteReq hits
system.cpu.dcache.WriteReq_misses::.cpu.data        33269                       # number of WriteReq misses
system.cpu.dcache.WriteReq_misses::total        33269                       # number of WriteReq misses
system.cpu.dcache.WriteReq_miss_latency::.cpu.data   2145114563                       # number of WriteReq miss cycles
system.cpu.dcache.WriteReq_miss_latency::total   2145114563                       # number of WriteReq miss cycles
system.cpu.dcache.WriteReq_accesses::.cpu.data       417607                       # number of WriteReq accesses(hits+misses)
system.cpu.dcache.WriteReq_accesses::total       417607                       # number of WriteReq accesses(hits+misses)
system.cpu.dcache.WriteReq_miss_rate::.cpu.data     0.079666                       # miss rate for WriteReq accesses
system.cpu.dcache.WriteReq_miss_rate::total     0.079666                       # miss rate for WriteReq accesses
system.cpu.dcache.WriteReq_avg_miss_latency::.cpu.data 64477.879197                       # average WriteReq miss latency
system.cpu.dcache.WriteReq_avg_miss_latency::total 64477.879197                       # average WriteReq miss latency
system.cpu.dcache.WriteReq_mshr_hits::.cpu.data        24198                       # number of WriteReq MSHR hits
system.cpu.dcache.WriteReq_mshr_hits::total        24198                       # number of WriteReq MSHR hits
system.cpu.dcache.WriteReq_mshr_misses::.cpu.data         9071                       # number of WriteReq MSHR misses
system.cpu.dcache.WriteReq_mshr_misses::total         9071                       # number of WriteReq MSHR misses
system.cpu.dcache.WriteReq_mshr_miss_latency::.cpu.data    685028939                       # number of WriteReq MSHR miss cycles
system.cpu.dcache.WriteReq_mshr_miss_latency::total    685028939                       # number of WriteReq MSHR miss cycles
system.cpu.dcache.WriteReq_mshr_miss_rate::.cpu.data     0.021721                       # mshr miss rate for WriteReq accesses
system.cpu.dcache.WriteReq_mshr_miss_rate::total     0.021721                       # mshr miss rate for WriteReq accesses
system.cpu.dcache.WriteReq_avg_mshr_miss_latency::.cpu.data 75518.568956                       # average WriteReq mshr miss latency
system.cpu.dcache.WriteReq_avg_mshr_miss_latency::total 75518.568956                       # average WriteReq mshr miss latency
system.cpu.dcache.SoftPFReq_hits::.cpu.data           52                       # number of SoftPFReq hits
system.cpu.dcache.SoftPFReq_hits::total            52                       # number of SoftPFReq hits
system.cpu.dcache.SoftPFReq_misses::.cpu.data            6                       # number of SoftPFReq misses
system.cpu.dcache.SoftPFReq_misses::total            6                       # number of SoftPFReq misses
system.cpu.dcache.SoftPFReq_accesses::.cpu.data           58                       # number of SoftPFReq accesses(hits+misses)
system.cpu.dcache.SoftPFReq_accesses::total           58                       # number of SoftPFReq accesses(hits+misses)
system.cpu.dcache.SoftPFReq_miss_rate::.cpu.data     0.103448                       # miss rate for SoftPFReq accesses
system.cpu.dcache.SoftPFReq_miss_rate::total     0.103448                       # miss rate for SoftPFReq accesses
system.cpu.dcache.SoftPFReq_mshr_misses::.cpu.data            2                       # number of SoftPFReq MSHR misses
system.cpu.dcache.SoftPFReq_mshr_misses::total            2                       # number of SoftPFReq MSHR misses
system.cpu.dcache.SoftPFReq_mshr_miss_latency::.cpu.data       184500                       # number of SoftPFReq MSHR miss cycles
system.cpu.dcache.SoftPFReq_mshr_miss_latency::total       184500                       # number of SoftPFReq MSHR miss cycles
system.cpu.dcache.SoftPFReq_mshr_miss_rate::.cpu.data     0.034483                       # mshr miss rate for SoftPFReq accesses
system.cpu.dcache.SoftPFReq_mshr_miss_rate::total     0.034483                       # mshr miss rate for SoftPFReq accesses
system.cpu.dcache.SoftPFReq_avg_mshr_miss_latency::.cpu.data        92250                       # average SoftPFReq mshr miss latency
system.cpu.dcache.SoftPFReq_avg_mshr_miss_latency::total        92250                       # average SoftPFReq mshr miss latency
system.cpu.dcache.WriteLineReq_hits::.cpu.data          288                       # number of WriteLineReq hits
system.cpu.dcache.WriteLineReq_hits::total          288                       # number of WriteLineReq hits
system.cpu.dcache.WriteLineReq_misses::.cpu.data        16630                       # number of WriteLineReq misses
system.cpu.dcache.WriteLineReq_misses::total        16630                       # number of WriteLineReq misses
system.cpu.dcache.WriteLineReq_miss_latency::.cpu.data    545774811                       # number of WriteLineReq miss cycles
system.cpu.dcache.WriteLineReq_miss_latency::total    545774811                       # number of WriteLineReq miss cycles
system.cpu.dcache.WriteLineReq_accesses::.cpu.data        16918                       # number of WriteLineReq accesses(hits+misses)
system.cpu.dcache.WriteLineReq_accesses::total        16918                       # number of WriteLineReq accesses(hits+misses)
system.cpu.dcache.WriteLineReq_miss_rate::.cpu.data     0.982977                       # miss rate for WriteLineReq accesses
system.cpu.dcache.WriteLineReq_miss_rate::total     0.982977                       # miss rate for WriteLineReq accesses
system.cpu.dcache.WriteLineReq_avg_miss_latency::.cpu.data 32818.689778                       # average WriteLineReq miss latency
system.cpu.dcache.WriteLineReq_avg_miss_latency::total 32818.689778                       # average WriteLineReq miss latency
system.cpu.dcache.WriteLineReq_mshr_misses::.cpu.data        16630                       # number of WriteLineReq MSHR misses
system.cpu.dcache.WriteLineReq_mshr_misses::total        16630                       # number of WriteLineReq MSHR misses
system.cpu.dcache.WriteLineReq_mshr_miss_latency::.cpu.data    529144811                       # number of WriteLineReq MSHR miss cycles
system.cpu.dcache.WriteLineReq_mshr_miss_latency::total    529144811                       # number of WriteLineReq MSHR miss cycles
system.cpu.dcache.WriteLineReq_mshr_miss_rate::.cpu.data     0.982977                       # mshr miss rate for WriteLineReq accesses
system.cpu.dcache.WriteLineReq_mshr_miss_rate::total     0.982977                       # mshr miss rate for WriteLineReq accesses
system.cpu.dcache.WriteLineReq_avg_mshr_miss_latency::.cpu.data 31818.689778                       # average WriteLineReq mshr miss latency
system.cpu.dcache.WriteLineReq_avg_mshr_miss_latency::total 31818.689778                       # average WriteLineReq mshr miss latency
system.cpu.dcache.LoadLockedReq_hits::.cpu.data          295                       # number of LoadLockedReq hits
system.cpu.dcache.LoadLockedReq_hits::total          295                       # number of LoadLockedReq hits
system.cpu.dcache.LoadLockedReq_misses::.cpu.data            6                       # number of LoadLockedReq misses
system.cpu.dcache.LoadLockedReq_misses::total            6                       # number of LoadLockedReq misses
system.cpu.dcache.LoadLockedReq_miss_latency::.cpu.data       379000                       # number of LoadLockedReq miss cycles
system.cpu.dcache.LoadLockedReq_miss_latency::total       379000                       # number of LoadLockedReq miss cycles
system.cpu.dcache.LoadLockedReq_accesses::.cpu.data          301                       # number of LoadLockedReq accesses(hits+misses)
system.cpu.dcache.LoadLockedReq_accesses::total          301                       # number of LoadLockedReq accesses(hits+misses)
system.cpu.dcache.LoadLockedReq_miss_rate::.cpu.data     0.019934                       # miss rate for LoadLockedReq accesses
system.cpu.dcache.LoadLockedReq_miss_rate::total     0.019934                       # miss rate for LoadLockedReq accesses
system.cpu.dcache.LoadLockedReq_avg_miss_latency::.cpu.data 63166.666667                       # average LoadLockedReq miss latency
system.cpu.dcache.LoadLockedReq_avg_miss_latency::total 63166.666667                       # average LoadLockedReq miss latency
system.cpu.dcache.LoadLockedReq_mshr_hits::.cpu.data            3                       # number of LoadLockedReq MSHR hits
system.cpu.dcache.LoadLockedReq_mshr_hits::total            3                       # number of LoadLockedReq MSHR hits
system.cpu.dcache.LoadLockedReq_mshr_misses::.cpu.data            3                       # number of LoadLockedReq MSHR misses
system.cpu.dcache.LoadLockedReq_mshr_misses::total            3                       # number of LoadLockedReq MSHR misses
system.cpu.dcache.LoadLockedReq_mshr_miss_latency::.cpu.data       123500                       # number of LoadLockedReq MSHR miss cycles
system.cpu.dcache.LoadLockedReq_mshr_miss_latency::total       123500                       # number of LoadLockedReq MSHR miss cycles
system.cpu.dcache.LoadLockedReq_mshr_miss_rate::.cpu.data     0.009967                       # mshr miss rate for LoadLockedReq accesses
system.cpu.dcache.LoadLockedReq_mshr_miss_rate::total     0.009967                       # mshr miss rate for LoadLockedReq accesses
system.cpu.dcache.LoadLockedReq_avg_mshr_miss_latency::.cpu.data 41166.666667                       # average LoadLockedReq mshr miss latency
system.cpu.dcache.LoadLockedReq_avg_mshr_miss_latency::total 41166.666667                       # average LoadLockedReq mshr miss latency
system.cpu.dcache.StoreCondReq_hits::.cpu.data          278                       # number of StoreCondReq hits
system.cpu.dcache.StoreCondReq_hits::total          278                       # number of StoreCondReq hits
system.cpu.dcache.StoreCondReq_accesses::.cpu.data          278                       # number of StoreCondReq accesses(hits+misses)
system.cpu.dcache.StoreCondReq_accesses::total          278                       # number of StoreCondReq accesses(hits+misses)
system.cpu.dcache.power_state.pwrStateResidencyTicks::UNDEFINED   1420407500                       # Cumulative time (in ticks) in various power states
system.cpu.dcache.tags.tagsinuse           973.629042                       # Cycle average of tags in use
system.cpu.dcache.tags.total_refs              892242                       # Total number of references to valid blocks.
system.cpu.dcache.tags.sampled_refs             26756                       # Sample count of references to valid blocks.
system.cpu.dcache.tags.avg_refs             33.347361                       # Average number of references to valid blocks.
system.cpu.dcache.tags.warmup_cycle            176500                       # Cycle when the warmup percentage was hit.
system.cpu.dcache.tags.occ_blocks::.cpu.data   973.629042                       # Average occupied blocks per requestor
system.cpu.dcache.tags.occ_percent::.cpu.data     0.950810                       # Average percentage of cache occupancy
system.cpu.dcache.tags.occ_percent::total     0.950810                       # Average percentage of cache occupancy
system.cpu.dcache.tags.occ_task_id_blocks::1024         1024                       # Occupied blocks per task id
system.cpu.dcache.tags.age_task_id_blocks_1024::0           65                       # Occupied blocks per task id
system.cpu.dcache.tags.age_task_id_blocks_1024::1          612                       # Occupied blocks per task id
system.cpu.dcache.tags.age_task_id_blocks_1024::2          347                       # Occupied blocks per task id
system.cpu.dcache.tags.occ_task_id_percent::1024            1                       # Percentage of cache occupancy per task id
system.cpu.dcache.tags.tag_accesses           1863214                       # Number of tag accesses
system.cpu.dcache.tags.data_accesses          1863214                       # Number of data accesses
system.cpu.dcache.tags.power_state.pwrStateResidencyTicks::UNDEFINED   1420407500                       # Cumulative time (in ticks) in various power states
system.cpu.power_state.pwrStateResidencyTicks::ON   1420407500                       # Cumulative time (in ticks) in various power states

---------- End Simulation Statistics   ----------
