
---------- Begin Simulation Statistics ----------
final_tick                                  646961000                       # Number of ticks from beginning of simulation (restored from checkpoints and never reset)
host_inst_rate                                 188202                       # Simulator instruction rate (inst/s)
host_mem_usage                                 868820                       # Number of bytes of host memory used
host_op_rate                                   221611                       # Simulator op (including micro ops) rate (op/s)
host_seconds                                     5.31                       # Real time elapsed on the host
host_tick_rate                              121754886                       # Simulator tick rate (ticks/s)
sim_freq                                 1000000000000                       # Frequency of simulated ticks
sim_insts                                     1000002                       # Number of instructions simulated
sim_ops                                       1177555                       # Number of ops (including micro ops) simulated
sim_seconds                                  0.000647                       # Number of seconds simulated
sim_ticks                                   646961000                       # Number of ticks simulated
system.cpu.branchPred.BTBCorrect                    0                       # Number of correct BTB predictions (this stat may not work properly.
system.cpu.branchPred.BTBHitPct             96.560588                       # BTB Hit Percentage
system.cpu.branchPred.BTBHits                  108565                       # Number of BTB hits
system.cpu.branchPred.BTBLookups               112432                       # Number of BTB lookups
system.cpu.branchPred.RASInCorrect                  6                       # Number of incorrect RAS predictions.
system.cpu.branchPred.condIncorrect              7120                       # Number of conditional branches incorrect
system.cpu.branchPred.condPredicted            201497                       # Number of conditional branches predicted
system.cpu.branchPred.indirectHits               1151                       # Number of indirect target hits.
system.cpu.branchPred.indirectLookups            1920                       # Number of indirect predictor lookups.
system.cpu.branchPred.indirectMisses              769                       # Number of indirect misses.
system.cpu.branchPred.lookups                  275240                       # Number of BP lookups
system.cpu.branchPred.usedRAS                   28983                       # Number of times the RAS was used to get a target.
system.cpu.branchPredindirectMispredicted          304                       # Number of mispredicted indirect branches.
system.cpu.cc_regfile_reads                    382305                       # number of cc regfile reads
system.cpu.cc_regfile_writes                   375264                       # number of cc regfile writes
system.cpu.commit.amos                              0                       # Number of atomic instructions committed
system.cpu.commit.branchMispredicts              5724                       # The number of times a branch was mispredicted
system.cpu.commit.branches                     236171                       # Number of branches committed
system.cpu.commit.bw_lim_events                 61733                       # number cycles where commit BW limit reached
system.cpu.commit.commitNonSpecStalls              75                       # The number of times commit has been forced to stall to communicate backwards
system.cpu.commit.commitSquashedInsts           94832                       # The number of squashed insts skipped by commit
system.cpu.commit.committedInsts              1000964                       # Number of instructions committed
system.cpu.commit.committedOps                1178517                       # Number of ops (including micro ops) committed
system.cpu.commit.committed_per_cycle::samples      1087866                       # Number of insts commited each cycle
system.cpu.commit.committed_per_cycle::mean     1.083329                       # Number of insts commited each cycle
system.cpu.commit.committed_per_cycle::stdev     2.136811                       # Number of insts commited each cycle
system.cpu.commit.committed_per_cycle::underflows            0      0.00%      0.00% # Number of insts commited each cycle
system.cpu.commit.committed_per_cycle::0       713631     65.60%     65.60% # Number of insts commited each cycle
system.cpu.commit.committed_per_cycle::1       155122     14.26%     79.86% # Number of insts commited each cycle
system.cpu.commit.committed_per_cycle::2        58937      5.42%     85.28% # Number of insts commited each cycle
system.cpu.commit.committed_per_cycle::3        46744      4.30%     89.57% # Number of insts commited each cycle
system.cpu.commit.committed_per_cycle::4        15623      1.44%     91.01% # Number of insts commited each cycle
system.cpu.commit.committed_per_cycle::5        15243      1.40%     92.41% # Number of insts commited each cycle
system.cpu.commit.committed_per_cycle::6        13113      1.21%     93.62% # Number of insts commited each cycle
system.cpu.commit.committed_per_cycle::7         7720      0.71%     94.33% # Number of insts commited each cycle
system.cpu.commit.committed_per_cycle::8        61733      5.67%    100.00% # Number of insts commited each cycle
system.cpu.commit.committed_per_cycle::overflows            0      0.00%    100.00% # Number of insts commited each cycle
system.cpu.commit.committed_per_cycle::min_value            0                       # Number of insts commited each cycle
system.cpu.commit.committed_per_cycle::max_value            8                       # Number of insts commited each cycle
system.cpu.commit.committed_per_cycle::total      1087866                       # Number of insts commited each cycle
system.cpu.commit.fp_insts                          0                       # Number of committed floating point instructions.
system.cpu.commit.function_calls                25599                       # Number of function calls committed.
system.cpu.commit.int_insts                   1058462                       # Number of committed integer instructions.
system.cpu.commit.loads                        219653                       # Number of loads committed
system.cpu.commit.membars                          58                       # Number of memory barriers committed
system.cpu.commit.op_class_0::No_OpClass           85      0.01%      0.01% # Class of committed instruction
system.cpu.commit.op_class_0::IntAlu           803955     68.22%     68.22% # Class of committed instruction
system.cpu.commit.op_class_0::IntMult              43      0.00%     68.23% # Class of committed instruction
system.cpu.commit.op_class_0::IntDiv                8      0.00%     68.23% # Class of committed instruction
system.cpu.commit.op_class_0::FloatAdd              3      0.00%     68.23% # Class of committed instruction
system.cpu.commit.op_class_0::FloatCmp              6      0.00%     68.23% # Class of committed instruction
system.cpu.commit.op_class_0::FloatCvt             24      0.00%     68.23% # Class of committed instruction
system.cpu.commit.op_class_0::FloatMult             1      0.00%     68.23% # Class of committed instruction
system.cpu.commit.op_class_0::FloatMultAcc            0      0.00%     68.23% # Class of committed instruction
system.cpu.commit.op_class_0::FloatDiv              1      0.00%     68.23% # Class of committed instruction
system.cpu.commit.op_class_0::FloatMisc            32      0.00%     68.23% # Class of committed instruction
system.cpu.commit.op_class_0::FloatSqrt             0      0.00%     68.23% # Class of committed instruction
system.cpu.commit.op_class_0::SimdAdd             211      0.02%     68.25% # Class of committed instruction
system.cpu.commit.op_class_0::SimdAddAcc            0      0.00%     68.25% # Class of committed instruction
system.cpu.commit.op_class_0::SimdAlu             346      0.03%     68.28% # Class of committed instruction
system.cpu.commit.op_class_0::SimdCmp             340      0.03%     68.31% # Class of committed instruction
system.cpu.commit.op_class_0::SimdCvt               4      0.00%     68.31% # Class of committed instruction
system.cpu.commit.op_class_0::SimdMisc            252      0.02%     68.33% # Class of committed instruction
system.cpu.commit.op_class_0::SimdMult              0      0.00%     68.33% # Class of committed instruction
system.cpu.commit.op_class_0::SimdMultAcc            0      0.00%     68.33% # Class of committed instruction
system.cpu.commit.op_class_0::SimdShift             0      0.00%     68.33% # Class of committed instruction
system.cpu.commit.op_class_0::SimdShiftAcc            0      0.00%     68.33% # Class of committed instruction
system.cpu.commit.op_class_0::SimdDiv               0      0.00%     68.33% # Class of committed instruction
system.cpu.commit.op_class_0::SimdSqrt              0      0.00%     68.33% # Class of committed instruction
system.cpu.commit.op_class_0::SimdFloatAdd            0      0.00%     68.33% # Class of committed instruction
system.cpu.commit.op_class_0::SimdFloatAlu            0      0.00%     68.33% # Class of committed instruction
system.cpu.commit.op_class_0::SimdFloatCmp            0      0.00%     68.33% # Class of committed instruction
system.cpu.commit.op_class_0::SimdFloatCvt            0      0.00%     68.33% # Class of committed instruction
system.cpu.commit.op_class_0::SimdFloatDiv            0      0.00%     68.33% # Class of committed instruction
system.cpu.commit.op_class_0::SimdFloatMisc            0      0.00%     68.33% # Class of committed instruction
system.cpu.commit.op_class_0::SimdFloatMult            0      0.00%     68.33% # Class of committed instruction
system.cpu.commit.op_class_0::SimdFloatMultAcc            0      0.00%     68.33% # Class of committed instruction
system.cpu.commit.op_class_0::SimdFloatSqrt            0      0.00%     68.33% # Class of committed instruction
system.cpu.commit.op_class_0::SimdReduceAdd            0      0.00%     68.33% # Class of committed instruction
system.cpu.commit.op_class_0::SimdReduceAlu            0      0.00%     68.33% # Class of committed instruction
system.cpu.commit.op_class_0::SimdReduceCmp            0      0.00%     68.33% # Class of committed instruction
system.cpu.commit.op_class_0::SimdFloatReduceAdd            0      0.00%     68.33% # Class of committed instruction
system.cpu.commit.op_class_0::SimdFloatReduceCmp            0      0.00%     68.33% # Class of committed instruction
system.cpu.commit.op_class_0::SimdAes               0      0.00%     68.33% # Class of committed instruction
system.cpu.commit.op_class_0::SimdAesMix            0      0.00%     68.33% # Class of committed instruction
system.cpu.commit.op_class_0::SimdSha1Hash            0      0.00%     68.33% # Class of committed instruction
system.cpu.commit.op_class_0::SimdSha1Hash2            0      0.00%     68.33% # Class of committed instruction
system.cpu.commit.op_class_0::SimdSha256Hash            0      0.00%     68.33% # Class of committed instruction
system.cpu.commit.op_class_0::SimdSha256Hash2            0      0.00%     68.33% # Class of committed instruction
system.cpu.commit.op_class_0::SimdShaSigma2            0      0.00%     68.33% # Class of committed instruction
system.cpu.commit.op_class_0::SimdShaSigma3            0      0.00%     68.33% # Class of committed instruction
system.cpu.commit.op_class_0::SimdPredAlu            0      0.00%     68.33% # Class of committed instruction
system.cpu.commit.op_class_0::MemRead          219653     18.64%     86.97% # Class of committed instruction
system.cpu.commit.op_class_0::MemWrite         153553     13.03%    100.00% # Class of committed instruction
system.cpu.commit.op_class_0::FloatMemRead            0      0.00%    100.00% # Class of committed instruction
system.cpu.commit.op_class_0::FloatMemWrite            0      0.00%    100.00% # Class of committed instruction
system.cpu.commit.op_class_0::IprAccess             0      0.00%    100.00% # Class of committed instruction
system.cpu.commit.op_class_0::InstPrefetch            0      0.00%    100.00% # Class of committed instruction
system.cpu.commit.op_class_0::total           1178517                       # Class of committed instruction
system.cpu.commit.refs                         373206                       # Number of memory references committed
system.cpu.commit.swp_count                         0                       # Number of s/w prefetches committed
system.cpu.commit.vec_insts                      2565                       # Number of committed Vector instructions.
system.cpu.committedInsts                     1000002                       # Number of Instructions Simulated
system.cpu.committedOps                       1177555                       # Number of Ops (including micro ops) Simulated
system.cpu.cpi                               1.293920                       # CPI: Cycles Per Instruction
system.cpu.cpi_total                         1.293920                       # CPI: Total CPI of All Threads
system.cpu.decode.BlockedCycles                304988                       # Number of cycles decode is blocked
system.cpu.decode.BranchMispred                  1414                       # Number of times decode detected a branch misprediction
system.cpu.decode.BranchResolved               106419                       # Number of times decode resolved a branch
system.cpu.decode.DecodedInsts                1306559                       # Number of instructions handled by decode
system.cpu.decode.IdleCycles                   565744                       # Number of cycles decode is idle
system.cpu.decode.RunCycles                    199379                       # Number of cycles decode is running
system.cpu.decode.SquashCycles                   5854                       # Number of cycles decode is squashing
system.cpu.decode.SquashedInsts                  4652                       # Number of squashed instructions handled by decode
system.cpu.decode.UnblockCycles                 27010                       # Number of cycles decode is unblocking
system.cpu.dtb.accesses                             0                       # DTB accesses
system.cpu.dtb.align_faults                         0                       # Number of TLB faults due to alignment restrictions
system.cpu.dtb.domain_faults                        0                       # Number of TLB faults due to domain restrictions
system.cpu.dtb.flush_entries                        0                       # Number of entries that have been flushed from TLB
system.cpu.dtb.flush_tlb                            0                       # Number of times complete TLB was flushed
system.cpu.dtb.flush_tlb_asid                       0                       # Number of times TLB was flushed by ASID
system.cpu.dtb.flush_tlb_mva                        0                       # Number of times TLB was flushed by MVA
system.cpu.dtb.flush_tlb_mva_asid                   0                       # Number of times TLB was flushed by MVA & ASID
system.cpu.dtb.hits                                 0                       # DTB hits
system.cpu.dtb.inst_accesses                        0                       # ITB inst accesses
system.cpu.dtb.inst_hits                            0                       # ITB inst hits
system.cpu.dtb.inst_misses                          0                       # ITB inst misses
system.cpu.dtb.misses                               0                       # DTB misses
system.cpu.dtb.perms_faults                         0                       # Number of TLB faults due to permissions restrictions
system.cpu.dtb.prefetch_faults                      0                       # Number of TLB faults due to prefetch
system.cpu.dtb.read_accesses                        0                       # DTB read accesses
system.cpu.dtb.read_hits                            0                       # DTB read hits
system.cpu.dtb.read_misses                          0                       # DTB read misses
system.cpu.dtb.stage2_mmu.stage2_tlb.accesses            0                       # DTB accesses
system.cpu.dtb.stage2_mmu.stage2_tlb.align_faults            0                       # Number of TLB faults due to alignment restrictions
system.cpu.dtb.stage2_mmu.stage2_tlb.domain_faults            0                       # Number of TLB faults due to domain restrictions
system.cpu.dtb.stage2_mmu.stage2_tlb.flush_entries            0                       # Number of entries that have been flushed from TLB
system.cpu.dtb.stage2_mmu.stage2_tlb.flush_tlb            0                       # Number of times complete TLB was flushed
system.cpu.dtb.stage2_mmu.stage2_tlb.flush_tlb_asid            0                       # Number of times TLB was flushed by ASID
system.cpu.dtb.stage2_mmu.stage2_tlb.flush_tlb_mva            0                       # Number of times TLB was flushed by MVA
system.cpu.dtb.stage2_mmu.stage2_tlb.flush_tlb_mva_asid            0                       # Number of times TLB was flushed by MVA & ASID
system.cpu.dtb.stage2_mmu.stage2_tlb.hits            0                       # DTB hits
system.cpu.dtb.stage2_mmu.stage2_tlb.inst_accesses            0                       # ITB inst accesses
system.cpu.dtb.stage2_mmu.stage2_tlb.inst_hits            0                       # ITB inst hits
system.cpu.dtb.stage2_mmu.stage2_tlb.inst_misses            0                       # ITB inst misses
system.cpu.dtb.stage2_mmu.stage2_tlb.misses            0                       # DTB misses
system.cpu.dtb.stage2_mmu.stage2_tlb.perms_faults            0                       # Number of TLB faults due to permissions restrictions
system.cpu.dtb.stage2_mmu.stage2_tlb.prefetch_faults            0                       # Number of TLB faults due to prefetch
system.cpu.dtb.stage2_mmu.stage2_tlb.read_accesses            0                       # DTB read accesses
system.cpu.dtb.stage2_mmu.stage2_tlb.read_hits            0                       # DTB read hits
system.cpu.dtb.stage2_mmu.stage2_tlb.read_misses            0                       # DTB read misses
system.cpu.dtb.stage2_mmu.stage2_tlb.walker.walkRequestOrigin_Requested::Data            0                       # Table walker requests started/completed, data/inst
system.cpu.dtb.stage2_mmu.stage2_tlb.walker.walkRequestOrigin_Requested::Inst            0                       # Table walker requests started/completed, data/inst
system.cpu.dtb.stage2_mmu.stage2_tlb.walker.walkRequestOrigin_Requested::total            0                       # Table walker requests started/completed, data/inst
system.cpu.dtb.stage2_mmu.stage2_tlb.walker.walkRequestOrigin_Completed::Data            0                       # Table walker requests started/completed, data/inst
system.cpu.dtb.stage2_mmu.stage2_tlb.walker.walkRequestOrigin_Completed::Inst            0                       # Table walker requests started/completed, data/inst
system.cpu.dtb.stage2_mmu.stage2_tlb.walker.walkRequestOrigin_Completed::total            0                       # Table walker requests started/completed, data/inst
system.cpu.dtb.stage2_mmu.stage2_tlb.walker.walkRequestOrigin::total            0                       # Table walker requests started/completed, data/inst
system.cpu.dtb.stage2_mmu.stage2_tlb.walker.walks            0                       # Table walker walks requested
system.cpu.dtb.stage2_mmu.stage2_tlb.write_accesses            0                       # DTB write accesses
system.cpu.dtb.stage2_mmu.stage2_tlb.write_hits            0                       # DTB write hits
system.cpu.dtb.stage2_mmu.stage2_tlb.write_misses            0                       # DTB write misses
system.cpu.dtb.walker.walkRequestOrigin_Requested::Data            0                       # Table walker requests started/completed, data/inst
system.cpu.dtb.walker.walkRequestOrigin_Requested::Inst            0                       # Table walker requests started/completed, data/inst
system.cpu.dtb.walker.walkRequestOrigin_Requested::total            0                       # Table walker requests started/completed, data/inst
system.cpu.dtb.walker.walkRequestOrigin_Completed::Data            0                       # Table walker requests started/completed, data/inst
system.cpu.dtb.walker.walkRequestOrigin_Completed::Inst            0                       # Table walker requests started/completed, data/inst
system.cpu.dtb.walker.walkRequestOrigin_Completed::total            0                       # Table walker requests started/completed, data/inst
system.cpu.dtb.walker.walkRequestOrigin::total            0                       # Table walker requests started/completed, data/inst
system.cpu.dtb.walker.walks                         0                       # Table walker walks requested
system.cpu.dtb.write_accesses                       0                       # DTB write accesses
system.cpu.dtb.write_hits                           0                       # DTB write hits
system.cpu.dtb.write_misses                         0                       # DTB write misses
system.cpu.fetch.Branches                      275240                       # Number of branches that fetch encountered
system.cpu.fetch.CacheLines                    178251                       # Number of cache lines fetched
system.cpu.fetch.Cycles                        439856                       # Number of cycles fetch has run and was not squashing or blocked
system.cpu.fetch.IcacheSquashes                  4643                       # Number of outstanding Icache misses that were squashed
system.cpu.fetch.IcacheWaitRetryStallCycles           66                       # Number of stall cycles due to full MSHR
system.cpu.fetch.Insts                        1154385                       # Number of instructions fetch has processed
system.cpu.fetch.MiscStallCycles                   23                       # Number of cycles fetch has spent waiting on interrupts, or bad addresses, or out of MSHRs
system.cpu.fetch.SquashCycles                   14500                       # Number of cycles fetch has spent squashing
system.cpu.fetch.branchRate                  0.212717                       # Number of branch fetches per cycle
system.cpu.fetch.icacheStallCycles             655780                       # Number of cycles fetch is stalled on an Icache miss
system.cpu.fetch.predictedBranches             138699                       # Number of branches that fetch has predicted taken
system.cpu.fetch.rate                        0.892159                       # Number of inst fetches per cycle
system.cpu.fetch.rateDist::samples            1102975                       # Number of instructions fetched each cycle (Total)
system.cpu.fetch.rateDist::mean              1.223163                       # Number of instructions fetched each cycle (Total)
system.cpu.fetch.rateDist::stdev             2.468134                       # Number of instructions fetched each cycle (Total)
system.cpu.fetch.rateDist::underflows               0      0.00%      0.00% # Number of instructions fetched each cycle (Total)
system.cpu.fetch.rateDist::0                   822066     74.53%     74.53% # Number of instructions fetched each cycle (Total)
system.cpu.fetch.rateDist::1                    33575      3.04%     77.58% # Number of instructions fetched each cycle (Total)
system.cpu.fetch.rateDist::2                    42096      3.82%     81.39% # Number of instructions fetched each cycle (Total)
system.cpu.fetch.rateDist::3                    35631      3.23%     84.62% # Number of instructions fetched each cycle (Total)
system.cpu.fetch.rateDist::4                    19663      1.78%     86.41% # Number of instructions fetched each cycle (Total)
system.cpu.fetch.rateDist::5                    35087      3.18%     89.59% # Number of instructions fetched each cycle (Total)
system.cpu.fetch.rateDist::6                    15583      1.41%     91.00% # Number of instructions fetched each cycle (Total)
system.cpu.fetch.rateDist::7                    17319      1.57%     92.57% # Number of instructions fetched each cycle (Total)
system.cpu.fetch.rateDist::8                    81955      7.43%    100.00% # Number of instructions fetched each cycle (Total)
system.cpu.fetch.rateDist::overflows                0      0.00%    100.00% # Number of instructions fetched each cycle (Total)
system.cpu.fetch.rateDist::min_value                0                       # Number of instructions fetched each cycle (Total)
system.cpu.fetch.rateDist::max_value                8                       # Number of instructions fetched each cycle (Total)
system.cpu.fetch.rateDist::total              1102975                       # Number of instructions fetched each cycle (Total)
system.cpu.idleCycles                          190948                       # Total number of cycles that the CPU has spent unscheduled due to idling
system.cpu.iew.branchMispredicts                 6535                       # Number of branch mispredicts detected at execute
system.cpu.iew.exec_branches                   245704                       # Number of branches executed
system.cpu.iew.exec_nop                          1081                       # number of nop insts executed
system.cpu.iew.exec_rate                     0.954547                       # Inst execution rate
system.cpu.iew.exec_refs                       391533                       # number of memory reference insts executed
system.cpu.iew.exec_stores                     158554                       # Number of stores executed
system.cpu.iew.exec_swp                             0                       # number of swp insts executed
system.cpu.iew.iewBlockCycles                   10190                       # Number of cycles IEW is blocking
system.cpu.iew.iewDispLoadInsts                239283                       # Number of dispatched load instructions
system.cpu.iew.iewDispNonSpecInsts                100                       # Number of dispatched non-speculative instructions
system.cpu.iew.iewDispSquashedInsts              1294                       # Number of squashed instructions skipped by dispatch
system.cpu.iew.iewDispStoreInsts               163747                       # Number of dispatched store instructions
system.cpu.iew.iewDispatchedInsts             1273619                       # Number of instructions dispatched to IQ
system.cpu.iew.iewExecLoadInsts                232979                       # Number of load instructions executed
system.cpu.iew.iewExecSquashedInsts              7762                       # Number of squashed instructions skipped in execute
system.cpu.iew.iewExecutedInsts               1235110                       # Number of executed instructions
system.cpu.iew.iewIQFullEvents                     28                       # Number of times the IQ has become full, causing a stall
system.cpu.iew.iewIdleCycles                        0                       # Number of cycles IEW is idle
system.cpu.iew.iewLSQFullEvents                  2312                       # Number of times the LSQ has become full, causing a stall
system.cpu.iew.iewSquashCycles                   5854                       # Number of cycles IEW is squashing
system.cpu.iew.iewUnblockCycles                  2352                       # Number of cycles IEW is unblocking
system.cpu.iew.lsq.thread0.blockedLoads             0                       # Number of blocked loads due to partial load-store forwarding
system.cpu.iew.lsq.thread0.cacheBlocked           304                       # Number of times an access to memory failed due to the cache being blocked
system.cpu.iew.lsq.thread0.forwLoads             4315                       # Number of loads that had data forwarded from stores
system.cpu.iew.lsq.thread0.ignoredResponses           49                       # Number of memory responses ignored because the instruction is squashed
system.cpu.iew.lsq.thread0.invAddrLoads             0                       # Number of loads ignored due to an invalid address
system.cpu.iew.lsq.thread0.invAddrSwpfs             0                       # Number of software prefetches ignored due to an invalid address
system.cpu.iew.lsq.thread0.memOrderViolation          103                       # Number of memory ordering violations
system.cpu.iew.lsq.thread0.rescheduledLoads         2189                       # Number of loads that were rescheduled
system.cpu.iew.lsq.thread0.squashedLoads        19621                       # Number of loads squashed
system.cpu.iew.lsq.thread0.squashedStores        10189                       # Number of stores squashed
system.cpu.iew.memOrderViolationEvents            103                       # Number of memory order violations
system.cpu.iew.predictedNotTakenIncorrect         4348                       # Number of branches that were predicted not taken incorrectly
system.cpu.iew.predictedTakenIncorrect           2187                       # Number of branches that were predicted taken incorrectly
system.cpu.iew.wb_consumers                   1142674                       # num instructions consuming a value
system.cpu.iew.wb_count                       1226081                       # cumulative count of insts written-back
system.cpu.iew.wb_fanout                     0.564674                       # average fanout of values written-back
system.cpu.iew.wb_producers                    645238                       # num instructions producing a value
system.cpu.iew.wb_rate                       0.947569                       # insts written-back per cycle
system.cpu.iew.wb_sent                        1229405                       # cumulative count of insts sent to commit
system.cpu.int_regfile_reads                  1383947                       # number of integer regfile reads
system.cpu.int_regfile_writes                  887519                       # number of integer regfile writes
system.cpu.ipc                               0.772845                       # IPC: Instructions Per Cycle
system.cpu.ipc_total                         0.772845                       # IPC: Total IPC of All Threads
system.cpu.iq.FU_type_0::No_OpClass                88      0.01%      0.01% # Type of FU issued
system.cpu.iq.FU_type_0::IntAlu                846856     68.14%     68.14% # Type of FU issued
system.cpu.iq.FU_type_0::IntMult                   43      0.00%     68.15% # Type of FU issued
system.cpu.iq.FU_type_0::IntDiv                    12      0.00%     68.15% # Type of FU issued
system.cpu.iq.FU_type_0::FloatAdd                   6      0.00%     68.15% # Type of FU issued
system.cpu.iq.FU_type_0::FloatCmp                   6      0.00%     68.15% # Type of FU issued
system.cpu.iq.FU_type_0::FloatCvt                  27      0.00%     68.15% # Type of FU issued
system.cpu.iq.FU_type_0::FloatMult                  1      0.00%     68.15% # Type of FU issued
system.cpu.iq.FU_type_0::FloatMultAcc               0      0.00%     68.15% # Type of FU issued
system.cpu.iq.FU_type_0::FloatDiv                   1      0.00%     68.15% # Type of FU issued
system.cpu.iq.FU_type_0::FloatMisc                 42      0.00%     68.15% # Type of FU issued
system.cpu.iq.FU_type_0::FloatSqrt                  0      0.00%     68.15% # Type of FU issued
system.cpu.iq.FU_type_0::SimdAdd                  227      0.02%     68.17% # Type of FU issued
system.cpu.iq.FU_type_0::SimdAddAcc                 0      0.00%     68.17% # Type of FU issued
system.cpu.iq.FU_type_0::SimdAlu                  362      0.03%     68.20% # Type of FU issued
system.cpu.iq.FU_type_0::SimdCmp                  348      0.03%     68.23% # Type of FU issued
system.cpu.iq.FU_type_0::SimdCvt                    4      0.00%     68.23% # Type of FU issued
system.cpu.iq.FU_type_0::SimdMisc                 260      0.02%     68.25% # Type of FU issued
system.cpu.iq.FU_type_0::SimdMult                   0      0.00%     68.25% # Type of FU issued
system.cpu.iq.FU_type_0::SimdMultAcc                0      0.00%     68.25% # Type of FU issued
system.cpu.iq.FU_type_0::SimdShift                  0      0.00%     68.25% # Type of FU issued
system.cpu.iq.FU_type_0::SimdShiftAcc               0      0.00%     68.25% # Type of FU issued
system.cpu.iq.FU_type_0::SimdDiv                    0      0.00%     68.25% # Type of FU issued
system.cpu.iq.FU_type_0::SimdSqrt                   0      0.00%     68.25% # Type of FU issued
system.cpu.iq.FU_type_0::SimdFloatAdd               0      0.00%     68.25% # Type of FU issued
system.cpu.iq.FU_type_0::SimdFloatAlu               0      0.00%     68.25% # Type of FU issued
system.cpu.iq.FU_type_0::SimdFloatCmp               0      0.00%     68.25% # Type of FU issued
system.cpu.iq.FU_type_0::SimdFloatCvt               0      0.00%     68.25% # Type of FU issued
system.cpu.iq.FU_type_0::SimdFloatDiv               0      0.00%     68.25% # Type of FU issued
system.cpu.iq.FU_type_0::SimdFloatMisc              0      0.00%     68.25% # Type of FU issued
system.cpu.iq.FU_type_0::SimdFloatMult              0      0.00%     68.25% # Type of FU issued
system.cpu.iq.FU_type_0::SimdFloatMultAcc            0      0.00%     68.25% # Type of FU issued
system.cpu.iq.FU_type_0::SimdFloatSqrt              0      0.00%     68.25% # Type of FU issued
system.cpu.iq.FU_type_0::SimdReduceAdd              0      0.00%     68.25% # Type of FU issued
system.cpu.iq.FU_type_0::SimdReduceAlu              0      0.00%     68.25% # Type of FU issued
system.cpu.iq.FU_type_0::SimdReduceCmp              0      0.00%     68.25% # Type of FU issued
system.cpu.iq.FU_type_0::SimdFloatReduceAdd            0      0.00%     68.25% # Type of FU issued
system.cpu.iq.FU_type_0::SimdFloatReduceCmp            0      0.00%     68.25% # Type of FU issued
system.cpu.iq.FU_type_0::SimdAes                    0      0.00%     68.25% # Type of FU issued
system.cpu.iq.FU_type_0::SimdAesMix                 0      0.00%     68.25% # Type of FU issued
system.cpu.iq.FU_type_0::SimdSha1Hash               0      0.00%     68.25% # Type of FU issued
system.cpu.iq.FU_type_0::SimdSha1Hash2              0      0.00%     68.25% # Type of FU issued
system.cpu.iq.FU_type_0::SimdSha256Hash             0      0.00%     68.25% # Type of FU issued
system.cpu.iq.FU_type_0::SimdSha256Hash2            0      0.00%     68.25% # Type of FU issued
system.cpu.iq.FU_type_0::SimdShaSigma2              0      0.00%     68.25% # Type of FU issued
system.cpu.iq.FU_type_0::SimdShaSigma3              0      0.00%     68.25% # Type of FU issued
system.cpu.iq.FU_type_0::SimdPredAlu                0      0.00%     68.25% # Type of FU issued
system.cpu.iq.FU_type_0::MemRead               234768     18.89%     87.14% # Type of FU issued
system.cpu.iq.FU_type_0::MemWrite              159829     12.86%    100.00% # Type of FU issued
system.cpu.iq.FU_type_0::FloatMemRead               0      0.00%    100.00% # Type of FU issued
system.cpu.iq.FU_type_0::FloatMemWrite              0      0.00%    100.00% # Type of FU issued
system.cpu.iq.FU_type_0::IprAccess                  0      0.00%    100.00% # Type of FU issued
system.cpu.iq.FU_type_0::InstPrefetch               0      0.00%    100.00% # Type of FU issued
system.cpu.iq.FU_type_0::total                1242880                       # Type of FU issued
system.cpu.iq.fp_alu_accesses                       0                       # Number of floating point alu accesses
system.cpu.iq.fp_inst_queue_reads                   0                       # Number of floating instruction queue reads
system.cpu.iq.fp_inst_queue_wakeup_accesses            0                       # Number of floating instruction queue wakeup accesses
system.cpu.iq.fp_inst_queue_writes                  0                       # Number of floating instruction queue writes
system.cpu.iq.fu_busy_cnt                       17956                       # FU busy when requested
system.cpu.iq.fu_busy_rate                   0.014447                       # FU busy rate (busy events/executed inst)
system.cpu.iq.fu_full::No_OpClass                   0      0.00%      0.00% # attempts to use FU when none available
system.cpu.iq.fu_full::IntAlu                    2702     15.05%     15.05% # attempts to use FU when none available
system.cpu.iq.fu_full::IntMult                      0      0.00%     15.05% # attempts to use FU when none available
system.cpu.iq.fu_full::IntDiv                       0      0.00%     15.05% # attempts to use FU when none available
system.cpu.iq.fu_full::FloatAdd                     0      0.00%     15.05% # attempts to use FU when none available
system.cpu.iq.fu_full::FloatCmp                     0      0.00%     15.05% # attempts to use FU when none available
system.cpu.iq.fu_full::FloatCvt                     0      0.00%     15.05% # attempts to use FU when none available
system.cpu.iq.fu_full::FloatMult                    0      0.00%     15.05% # attempts to use FU when none available
system.cpu.iq.fu_full::FloatMultAcc                 0      0.00%     15.05% # attempts to use FU when none available
system.cpu.iq.fu_full::FloatDiv                     0      0.00%     15.05% # attempts to use FU when none available
system.cpu.iq.fu_full::FloatMisc                    1      0.01%     15.05% # attempts to use FU when none available
system.cpu.iq.fu_full::FloatSqrt                    0      0.00%     15.05% # attempts to use FU when none available
system.cpu.iq.fu_full::SimdAdd                      0      0.00%     15.05% # attempts to use FU when none available
system.cpu.iq.fu_full::SimdAddAcc                   0      0.00%     15.05% # attempts to use FU when none available
system.cpu.iq.fu_full::SimdAlu                      7      0.04%     15.09% # attempts to use FU when none available
system.cpu.iq.fu_full::SimdCmp                      5      0.03%     15.12% # attempts to use FU when none available
system.cpu.iq.fu_full::SimdCvt                      0      0.00%     15.12% # attempts to use FU when none available
system.cpu.iq.fu_full::SimdMisc                     0      0.00%     15.12% # attempts to use FU when none available
system.cpu.iq.fu_full::SimdMult                     0      0.00%     15.12% # attempts to use FU when none available
system.cpu.iq.fu_full::SimdMultAcc                  0      0.00%     15.12% # attempts to use FU when none available
system.cpu.iq.fu_full::SimdShift                    0      0.00%     15.12% # attempts to use FU when none available
system.cpu.iq.fu_full::SimdShiftAcc                 0      0.00%     15.12% # attempts to use FU when none available
system.cpu.iq.fu_full::SimdDiv                      0      0.00%     15.12% # attempts to use FU when none available
system.cpu.iq.fu_full::SimdSqrt                     0      0.00%     15.12% # attempts to use FU when none available
system.cpu.iq.fu_full::SimdFloatAdd                 0      0.00%     15.12% # attempts to use FU when none available
system.cpu.iq.fu_full::SimdFloatAlu                 0      0.00%     15.12% # attempts to use FU when none available
system.cpu.iq.fu_full::SimdFloatCmp                 0      0.00%     15.12% # attempts to use FU when none available
system.cpu.iq.fu_full::SimdFloatCvt                 0      0.00%     15.12% # attempts to use FU when none available
system.cpu.iq.fu_full::SimdFloatDiv                 0      0.00%     15.12% # attempts to use FU when none available
system.cpu.iq.fu_full::SimdFloatMisc                0      0.00%     15.12% # attempts to use FU when none available
system.cpu.iq.fu_full::SimdFloatMult                0      0.00%     15.12% # attempts to use FU when none available
system.cpu.iq.fu_full::SimdFloatMultAcc             0      0.00%     15.12% # attempts to use FU when none available
system.cpu.iq.fu_full::SimdFloatSqrt                0      0.00%     15.12% # attempts to use FU when none available
system.cpu.iq.fu_full::SimdReduceAdd                0      0.00%     15.12% # attempts to use FU when none available
system.cpu.iq.fu_full::SimdReduceAlu                0      0.00%     15.12% # attempts to use FU when none available
system.cpu.iq.fu_full::SimdReduceCmp                0      0.00%     15.12% # attempts to use FU when none available
system.cpu.iq.fu_full::SimdFloatReduceAdd            0      0.00%     15.12% # attempts to use FU when none available
system.cpu.iq.fu_full::SimdFloatReduceCmp            0      0.00%     15.12% # attempts to use FU when none available
system.cpu.iq.fu_full::SimdAes                      0      0.00%     15.12% # attempts to use FU when none available
system.cpu.iq.fu_full::SimdAesMix                   0      0.00%     15.12% # attempts to use FU when none available
system.cpu.iq.fu_full::SimdSha1Hash                 0      0.00%     15.12% # attempts to use FU when none available
system.cpu.iq.fu_full::SimdSha1Hash2                0      0.00%     15.12% # attempts to use FU when none available
system.cpu.iq.fu_full::SimdSha256Hash               0      0.00%     15.12% # attempts to use FU when none available
system.cpu.iq.fu_full::SimdSha256Hash2              0      0.00%     15.12% # attempts to use FU when none available
system.cpu.iq.fu_full::SimdShaSigma2                0      0.00%     15.12% # attempts to use FU when none available
system.cpu.iq.fu_full::SimdShaSigma3                0      0.00%     15.12% # attempts to use FU when none available
system.cpu.iq.fu_full::SimdPredAlu                  0      0.00%     15.12% # attempts to use FU when none available
system.cpu.iq.fu_full::MemRead                   6668     37.14%     52.26% # attempts to use FU when none available
system.cpu.iq.fu_full::MemWrite                  8573     47.74%    100.00% # attempts to use FU when none available
system.cpu.iq.fu_full::FloatMemRead                 0      0.00%    100.00% # attempts to use FU when none available
system.cpu.iq.fu_full::FloatMemWrite                0      0.00%    100.00% # attempts to use FU when none available
system.cpu.iq.fu_full::IprAccess                    0      0.00%    100.00% # attempts to use FU when none available
system.cpu.iq.fu_full::InstPrefetch                 0      0.00%    100.00% # attempts to use FU when none available
system.cpu.iq.int_alu_accesses                1257924                       # Number of integer alu accesses
system.cpu.iq.int_inst_queue_reads            3601464                       # Number of integer instruction queue reads
system.cpu.iq.int_inst_queue_wakeup_accesses      1223432                       # Number of integer instruction queue wakeup accesses
system.cpu.iq.int_inst_queue_writes           1364272                       # Number of integer instruction queue writes
system.cpu.iq.iqInstsAdded                    1272438                       # Number of instructions added to the IQ (excludes non-spec)
system.cpu.iq.iqInstsIssued                   1242880                       # Number of instructions issued
system.cpu.iq.iqNonSpecInstsAdded                 100                       # Number of non-speculative instructions added to the IQ
system.cpu.iq.iqSquashedInstsExamined           94932                       # Number of squashed instructions iterated over during squash; mainly for profiling
system.cpu.iq.iqSquashedInstsIssued               420                       # Number of squashed instructions issued
system.cpu.iq.iqSquashedNonSpecRemoved             25                       # Number of squashed non-spec instructions that were removed
system.cpu.iq.iqSquashedOperandsExamined        68788                       # Number of squashed operands that are examined and possibly removed from graph
system.cpu.iq.issued_per_cycle::samples       1102975                       # Number of insts issued each cycle
system.cpu.iq.issued_per_cycle::mean         1.126843                       # Number of insts issued each cycle
system.cpu.iq.issued_per_cycle::stdev        1.860204                       # Number of insts issued each cycle
system.cpu.iq.issued_per_cycle::underflows            0      0.00%      0.00% # Number of insts issued each cycle
system.cpu.iq.issued_per_cycle::0              679174     61.58%     61.58% # Number of insts issued each cycle
system.cpu.iq.issued_per_cycle::1              132974     12.06%     73.63% # Number of insts issued each cycle
system.cpu.iq.issued_per_cycle::2               79467      7.20%     80.84% # Number of insts issued each cycle
system.cpu.iq.issued_per_cycle::3               70054      6.35%     87.19% # Number of insts issued each cycle
system.cpu.iq.issued_per_cycle::4               58920      5.34%     92.53% # Number of insts issued each cycle
system.cpu.iq.issued_per_cycle::5               29567      2.68%     95.21% # Number of insts issued each cycle
system.cpu.iq.issued_per_cycle::6               26216      2.38%     97.59% # Number of insts issued each cycle
system.cpu.iq.issued_per_cycle::7               12825      1.16%     98.75% # Number of insts issued each cycle
system.cpu.iq.issued_per_cycle::8               13778      1.25%    100.00% # Number of insts issued each cycle
system.cpu.iq.issued_per_cycle::overflows            0      0.00%    100.00% # Number of insts issued each cycle
system.cpu.iq.issued_per_cycle::min_value            0                       # Number of insts issued each cycle
system.cpu.iq.issued_per_cycle::max_value            8                       # Number of insts issued each cycle
system.cpu.iq.issued_per_cycle::total         1102975                       # Number of insts issued each cycle
system.cpu.iq.rate                           0.960552                       # Inst issue rate
system.cpu.iq.vec_alu_accesses                   2824                       # Number of vector alu accesses
system.cpu.iq.vec_inst_queue_reads               5639                       # Number of vector instruction queue reads
system.cpu.iq.vec_inst_queue_wakeup_accesses         2649                       # Number of vector instruction queue wakeup accesses
system.cpu.iq.vec_inst_queue_writes              3295                       # Number of vector instruction queue writes
system.cpu.itb.accesses                             0                       # DTB accesses
system.cpu.itb.align_faults                         0                       # Number of TLB faults due to alignment restrictions
system.cpu.itb.domain_faults                        0                       # Number of TLB faults due to domain restrictions
system.cpu.itb.flush_entries                        0                       # Number of entries that have been flushed from TLB
system.cpu.itb.flush_tlb                            0                       # Number of times complete TLB was flushed
system.cpu.itb.flush_tlb_asid                       0                       # Number of times TLB was flushed by ASID
system.cpu.itb.flush_tlb_mva                        0                       # Number of times TLB was flushed by MVA
system.cpu.itb.flush_tlb_mva_asid                   0                       # Number of times TLB was flushed by MVA & ASID
system.cpu.itb.hits                                 0                       # DTB hits
system.cpu.itb.inst_accesses                        0                       # ITB inst accesses
system.cpu.itb.inst_hits                            0                       # ITB inst hits
system.cpu.itb.inst_misses                          0                       # ITB inst misses
system.cpu.itb.misses                               0                       # DTB misses
system.cpu.itb.perms_faults                         0                       # Number of TLB faults due to permissions restrictions
system.cpu.itb.prefetch_faults                      0                       # Number of TLB faults due to prefetch
system.cpu.itb.read_accesses                        0                       # DTB read accesses
system.cpu.itb.read_hits                            0                       # DTB read hits
system.cpu.itb.read_misses                          0                       # DTB read misses
system.cpu.itb.stage2_mmu.stage2_tlb.accesses            0                       # DTB accesses
system.cpu.itb.stage2_mmu.stage2_tlb.align_faults            0                       # Number of TLB faults due to alignment restrictions
system.cpu.itb.stage2_mmu.stage2_tlb.domain_faults            0                       # Number of TLB faults due to domain restrictions
system.cpu.itb.stage2_mmu.stage2_tlb.flush_entries            0                       # Number of entries that have been flushed from TLB
system.cpu.itb.stage2_mmu.stage2_tlb.flush_tlb            0                       # Number of times complete TLB was flushed
system.cpu.itb.stage2_mmu.stage2_tlb.flush_tlb_asid            0                       # Number of times TLB was flushed by ASID
system.cpu.itb.stage2_mmu.stage2_tlb.flush_tlb_mva            0                       # Number of times TLB was flushed by MVA
system.cpu.itb.stage2_mmu.stage2_tlb.flush_tlb_mva_asid            0                       # Number of times TLB was flushed by MVA & ASID
system.cpu.itb.stage2_mmu.stage2_tlb.hits            0                       # DTB hits
system.cpu.itb.stage2_mmu.stage2_tlb.inst_accesses            0                       # ITB inst accesses
system.cpu.itb.stage2_mmu.stage2_tlb.inst_hits            0                       # ITB inst hits
system.cpu.itb.stage2_mmu.stage2_tlb.inst_misses            0                       # ITB inst misses
system.cpu.itb.stage2_mmu.stage2_tlb.misses            0                       # DTB misses
system.cpu.itb.stage2_mmu.stage2_tlb.perms_faults            0                       # Number of TLB faults due to permissions restrictions
system.cpu.itb.stage2_mmu.stage2_tlb.prefetch_faults            0                       # Number of TLB faults due to prefetch
system.cpu.itb.stage2_mmu.stage2_tlb.read_accesses            0                       # DTB read accesses
system.cpu.itb.stage2_mmu.stage2_tlb.read_hits            0                       # DTB read hits
system.cpu.itb.stage2_mmu.stage2_tlb.read_misses            0                       # DTB read misses
system.cpu.itb.stage2_mmu.stage2_tlb.walker.walkRequestOrigin_Requested::Data            0                       # Table walker requests started/completed, data/inst
system.cpu.itb.stage2_mmu.stage2_tlb.walker.walkRequestOrigin_Requested::Inst            0                       # Table walker requests started/completed, data/inst
system.cpu.itb.stage2_mmu.stage2_tlb.walker.walkRequestOrigin_Requested::total            0                       # Table walker requests started/completed, data/inst
system.cpu.itb.stage2_mmu.stage2_tlb.walker.walkRequestOrigin_Completed::Data            0                       # Table walker requests started/completed, data/inst
system.cpu.itb.stage2_mmu.stage2_tlb.walker.walkRequestOrigin_Completed::Inst            0                       # Table walker requests started/completed, data/inst
system.cpu.itb.stage2_mmu.stage2_tlb.walker.walkRequestOrigin_Completed::total            0                       # Table walker requests started/completed, data/inst
system.cpu.itb.stage2_mmu.stage2_tlb.walker.walkRequestOrigin::total            0                       # Table walker requests started/completed, data/inst
system.cpu.itb.stage2_mmu.stage2_tlb.walker.walks            0                       # Table walker walks requested
system.cpu.itb.stage2_mmu.stage2_tlb.write_accesses            0                       # DTB write accesses
system.cpu.itb.stage2_mmu.stage2_tlb.write_hits            0                       # DTB write hits
system.cpu.itb.stage2_mmu.stage2_tlb.write_misses            0                       # DTB write misses
system.cpu.itb.walker.walkRequestOrigin_Requested::Data            0                       # Table walker requests started/completed, data/inst
system.cpu.itb.walker.walkRequestOrigin_Requested::Inst            0                       # Table walker requests started/completed, data/inst
system.cpu.itb.walker.walkRequestOrigin_Requested::total            0                       # Table walker requests started/completed, data/inst
system.cpu.itb.walker.walkRequestOrigin_Completed::Data            0                       # Table walker requests started/completed, data/inst
system.cpu.itb.walker.walkRequestOrigin_Completed::Inst            0                       # Table walker requests started/completed, data/inst
system.cpu.itb.walker.walkRequestOrigin_Completed::total            0                       # Table walker requests started/completed, data/inst
system.cpu.itb.walker.walkRequestOrigin::total            0                       # Table walker requests started/completed, data/inst
system.cpu.itb.walker.walks                         0                       # Table walker walks requested
system.cpu.itb.write_accesses                       0                       # DTB write accesses
system.cpu.itb.write_hits                           0                       # DTB write hits
system.cpu.itb.write_misses                         0                       # DTB write misses
system.cpu.memDep0.conflictingLoads              2880                       # Number of conflicting loads.
system.cpu.memDep0.conflictingStores             4487                       # Number of conflicting stores.
system.cpu.memDep0.insertedLoads               239283                       # Number of loads inserted to the mem dependence unit.
system.cpu.memDep0.insertedStores              163747                       # Number of stores inserted to the mem dependence unit.
system.cpu.misc_regfile_reads                  932459                       # number of misc regfile reads
system.cpu.misc_regfile_writes                    272                       # number of misc regfile writes
system.cpu.numCycles                          1293923                       # number of cpu cycles simulated
system.cpu.numWorkItemsCompleted                    0                       # number of work items this cpu completed
system.cpu.numWorkItemsStarted                      0                       # number of work items this cpu started
system.cpu.rename.BlockCycles                   20913                       # Number of cycles rename is blocking
system.cpu.rename.CommittedMaps               1212533                       # Number of HB maps that are committed
system.cpu.rename.IQFullEvents                  10012                       # Number of times rename has blocked due to IQ full
system.cpu.rename.IdleCycles                   577897                       # Number of cycles rename is idle
system.cpu.rename.LQFullEvents                    160                       # Number of times rename has blocked due to LQ full
system.cpu.rename.ROBFullEvents                    13                       # Number of times rename has blocked due to ROB full
system.cpu.rename.RenameLookups               1925486                       # Number of register rename lookups that rename has made
system.cpu.rename.RenamedInsts                1291991                       # Number of instructions processed by rename
system.cpu.rename.RenamedOperands             1331908                       # Number of destination operands rename has renamed
system.cpu.rename.RunCycles                    213654                       # Number of cycles rename is running
system.cpu.rename.SQFullEvents                  18858                       # Number of times rename has blocked due to SQ full
system.cpu.rename.SquashCycles                   5854                       # Number of cycles rename is squashing
system.cpu.rename.UnblockCycles                 49739                       # Number of cycles rename is unblocking
system.cpu.rename.UndoneMaps                   119288                       # Number of HB maps that are undone due to squashing
system.cpu.rename.int_rename_lookups          1449674                       # Number of integer rename lookups
system.cpu.rename.serializeStallCycles         234918                       # count of cycles rename stalled for serializing inst
system.cpu.rename.serializingInsts              14756                       # count of serializing insts renamed
system.cpu.rename.skidInsts                    126359                       # count of insts added to the skid buffer
system.cpu.rename.tempSerializingInsts             99                       # count of temporary serializing insts renamed
system.cpu.rename.vec_rename_lookups             3628                       # Number of vector rename lookups
system.cpu.rob.rob_reads                      2298949                       # The number of ROB reads
system.cpu.rob.rob_writes                     2561922                       # The number of ROB writes
system.cpu.timesIdled                           17407                       # Number of times that the entire CPU went into an idle state and unscheduled itself
system.cpu.vec_regfile_reads                     3181                       # number of vector regfile reads
system.cpu.vec_regfile_writes                    1567                       # number of vector regfile writes
system.cpu.workload.numSyscalls                    16                       # Number of system calls
system.membus.snoop_filter.hit_multi_requests            0                       # Number of requests hitting in the snoop filter with multiple (>1) holders of the requested data.
system.membus.snoop_filter.hit_multi_snoops            0                       # Number of snoops hitting in the snoop filter with multiple (>1) holders of the requested data.
system.membus.snoop_filter.hit_single_requests            0                       # Number of requests hitting in the snoop filter with a single holder of the requested data.
system.membus.snoop_filter.hit_single_snoops            0                       # Number of snoops hitting in the snoop filter with a single holder of the requested data.
system.membus.snoop_filter.tot_requests          2804                       # Total number of requests made to the snoop filter.
system.membus.snoop_filter.tot_snoops               0                       # Total number of snoops made to the snoop filter.
system.tol2bus.snoop_filter.hit_multi_requests            2                       # Number of requests hitting in the snoop filter with multiple (>1) holders of the requested data.
system.tol2bus.snoop_filter.hit_multi_snoops            0                       # Number of snoops hitting in the snoop filter with multiple (>1) holders of the requested data.
system.tol2bus.snoop_filter.hit_single_requests        24631                       # Number of requests hitting in the snoop filter with a single holder of the requested data.
system.tol2bus.snoop_filter.hit_single_snoops            0                       # Number of snoops hitting in the snoop filter with a single holder of the requested data.
system.tol2bus.snoop_filter.tot_requests        50218                       # Total number of requests made to the snoop filter.
system.tol2bus.snoop_filter.tot_snoops              0                       # Total number of snoops made to the snoop filter.
system.membus.trans_dist::ReadResp               2031                       # Transaction distribution
system.membus.trans_dist::ReadExReq               764                       # Transaction distribution
system.membus.trans_dist::ReadExResp              764                       # Transaction distribution
system.membus.trans_dist::ReadSharedReq          2031                       # Transaction distribution
system.membus.trans_dist::InvalidateReq             9                       # Transaction distribution
system.membus.pkt_count_system.l2.mem_side::system.mem_ctrls.port         5599                       # Packet count per connected master and slave (bytes)
system.membus.pkt_count::total                   5599                       # Packet count per connected master and slave (bytes)
system.membus.pkt_size_system.l2.mem_side::system.mem_ctrls.port       178880                       # Cumulative packet size per connected master and slave (bytes)
system.membus.pkt_size::total                  178880                       # Cumulative packet size per connected master and slave (bytes)
system.membus.snoops                                0                       # Total snoops (count)
system.membus.snoopTraffic                          0                       # Total snoop traffic (bytes)
system.membus.snoop_fanout::samples              2804                       # Request fanout histogram
system.membus.snoop_fanout::mean                    0                       # Request fanout histogram
system.membus.snoop_fanout::stdev                   0                       # Request fanout histogram
system.membus.snoop_fanout::underflows              0      0.00%      0.00% # Request fanout histogram
system.membus.snoop_fanout::0                    2804    100.00%    100.00% # Request fanout histogram
system.membus.snoop_fanout::1                       0      0.00%    100.00% # Request fanout histogram
system.membus.snoop_fanout::overflows               0      0.00%    100.00% # Request fanout histogram
system.membus.snoop_fanout::min_value               0                       # Request fanout histogram
system.membus.snoop_fanout::max_value               0                       # Request fanout histogram
system.membus.snoop_fanout::total                2804                       # Request fanout histogram
system.membus.reqLayer0.occupancy             3490000                       # Layer occupancy (ticks)
system.membus.reqLayer0.utilization               0.5                       # Layer utilization (%)
system.membus.respLayer1.occupancy           14802000                       # Layer occupancy (ticks)
system.membus.respLayer1.utilization              2.3                       # Layer utilization (%)
system.membus.power_state.pwrStateResidencyTicks::UNDEFINED    646961000                       # Cumulative time (in ticks) in various power states
system.tol2bus.trans_dist::ReadResp             24726                       # Transaction distribution
system.tol2bus.trans_dist::WritebackDirty          607                       # Transaction distribution
system.tol2bus.trans_dist::WritebackClean        23877                       # Transaction distribution
system.tol2bus.trans_dist::CleanEvict             147                       # Transaction distribution
system.tol2bus.trans_dist::ReadExReq              851                       # Transaction distribution
system.tol2bus.trans_dist::ReadExResp             851                       # Transaction distribution
system.tol2bus.trans_dist::ReadCleanReq         23941                       # Transaction distribution
system.tol2bus.trans_dist::ReadSharedReq          785                       # Transaction distribution
system.tol2bus.trans_dist::InvalidateReq           10                       # Transaction distribution
system.tol2bus.trans_dist::InvalidateResp           10                       # Transaction distribution
system.tol2bus.pkt_count_system.cpu.icache.mem_side::system.l2.cpu_side        71759                       # Packet count per connected master and slave (bytes)
system.tol2bus.pkt_count_system.cpu.dcache.mem_side::system.l2.cpu_side         4046                       # Packet count per connected master and slave (bytes)
system.tol2bus.pkt_count::total                 75805                       # Packet count per connected master and slave (bytes)
system.tol2bus.pkt_size_system.cpu.icache.mem_side::system.l2.cpu_side      3060352                       # Cumulative packet size per connected master and slave (bytes)
system.tol2bus.pkt_size_system.cpu.dcache.mem_side::system.l2.cpu_side       143552                       # Cumulative packet size per connected master and slave (bytes)
system.tol2bus.pkt_size::total                3203904                       # Cumulative packet size per connected master and slave (bytes)
system.tol2bus.snoops                               0                       # Total snoops (count)
system.tol2bus.snoopTraffic                         0                       # Total snoop traffic (bytes)
system.tol2bus.snoop_fanout::samples            25587                       # Request fanout histogram
system.tol2bus.snoop_fanout::mean            0.000078                       # Request fanout histogram
system.tol2bus.snoop_fanout::stdev           0.008841                       # Request fanout histogram
system.tol2bus.snoop_fanout::underflows             0      0.00%      0.00% # Request fanout histogram
system.tol2bus.snoop_fanout::0                  25585     99.99%     99.99% # Request fanout histogram
system.tol2bus.snoop_fanout::1                      2      0.01%    100.00% # Request fanout histogram
system.tol2bus.snoop_fanout::2                      0      0.00%    100.00% # Request fanout histogram
system.tol2bus.snoop_fanout::overflows              0      0.00%    100.00% # Request fanout histogram
system.tol2bus.snoop_fanout::min_value              0                       # Request fanout histogram
system.tol2bus.snoop_fanout::max_value              1                       # Request fanout histogram
system.tol2bus.snoop_fanout::total              25587                       # Request fanout histogram
system.tol2bus.reqLayer0.occupancy           49593000                       # Layer occupancy (ticks)
system.tol2bus.reqLayer0.utilization              7.7                       # Layer utilization (%)
system.tol2bus.respLayer1.occupancy           2462992                       # Layer occupancy (ticks)
system.tol2bus.respLayer1.utilization             0.4                       # Layer utilization (%)
system.tol2bus.respLayer0.occupancy          35911500                       # Layer occupancy (ticks)
system.tol2bus.respLayer0.utilization             5.6                       # Layer utilization (%)
system.tol2bus.power_state.pwrStateResidencyTicks::UNDEFINED    646961000                       # Cumulative time (in ticks) in various power states
system.voltage_domain.voltage                       1                       # Voltage in Volts
system.clk_domain.clock                          1000                       # Clock period in ticks
system.l2.demand_hits::.cpu.inst                22430                       # number of demand (read+write) hits
system.l2.demand_hits::.cpu.data                  352                       # number of demand (read+write) hits
system.l2.demand_hits::total                    22782                       # number of demand (read+write) hits
system.l2.overall_hits::.cpu.inst               22430                       # number of overall hits
system.l2.overall_hits::.cpu.data                 352                       # number of overall hits
system.l2.overall_hits::total                   22782                       # number of overall hits
system.l2.demand_misses::.cpu.inst               1511                       # number of demand (read+write) misses
system.l2.demand_misses::.cpu.data               1284                       # number of demand (read+write) misses
system.l2.demand_misses::total                   2795                       # number of demand (read+write) misses
system.l2.overall_misses::.cpu.inst              1511                       # number of overall misses
system.l2.overall_misses::.cpu.data              1284                       # number of overall misses
system.l2.overall_misses::total                  2795                       # number of overall misses
system.l2.demand_miss_latency::.cpu.inst    119171000                       # number of demand (read+write) miss cycles
system.l2.demand_miss_latency::.cpu.data    103653500                       # number of demand (read+write) miss cycles
system.l2.demand_miss_latency::total        222824500                       # number of demand (read+write) miss cycles
system.l2.overall_miss_latency::.cpu.inst    119171000                       # number of overall miss cycles
system.l2.overall_miss_latency::.cpu.data    103653500                       # number of overall miss cycles
system.l2.overall_miss_latency::total       222824500                       # number of overall miss cycles
system.l2.demand_accesses::.cpu.inst            23941                       # number of demand (read+write) accesses
system.l2.demand_accesses::.cpu.data             1636                       # number of demand (read+write) accesses
system.l2.demand_accesses::total                25577                       # number of demand (read+write) accesses
system.l2.overall_accesses::.cpu.inst           23941                       # number of overall (read+write) accesses
system.l2.overall_accesses::.cpu.data            1636                       # number of overall (read+write) accesses
system.l2.overall_accesses::total               25577                       # number of overall (read+write) accesses
system.l2.demand_miss_rate::.cpu.inst        0.063113                       # miss rate for demand accesses
system.l2.demand_miss_rate::.cpu.data        0.784841                       # miss rate for demand accesses
system.l2.demand_miss_rate::total            0.109278                       # miss rate for demand accesses
system.l2.overall_miss_rate::.cpu.inst       0.063113                       # miss rate for overall accesses
system.l2.overall_miss_rate::.cpu.data       0.784841                       # miss rate for overall accesses
system.l2.overall_miss_rate::total           0.109278                       # miss rate for overall accesses
system.l2.demand_avg_miss_latency::.cpu.inst 78868.960953                       # average overall miss latency
system.l2.demand_avg_miss_latency::.cpu.data 80727.024922                       # average overall miss latency
system.l2.demand_avg_miss_latency::total 79722.540250                       # average overall miss latency
system.l2.overall_avg_miss_latency::.cpu.inst 78868.960953                       # average overall miss latency
system.l2.overall_avg_miss_latency::.cpu.data 80727.024922                       # average overall miss latency
system.l2.overall_avg_miss_latency::total 79722.540250                       # average overall miss latency
system.l2.blocked_cycles::no_mshrs                  0                       # number of cycles access was blocked
system.l2.blocked_cycles::no_targets                0                       # number of cycles access was blocked
system.l2.blocked::no_mshrs                         0                       # number of cycles access was blocked
system.l2.blocked::no_targets                       0                       # number of cycles access was blocked
system.l2.avg_blocked_cycles::no_mshrs            nan                       # average number of cycles each access was blocked
system.l2.avg_blocked_cycles::no_targets          nan                       # average number of cycles each access was blocked
system.l2.demand_mshr_misses::.cpu.inst          1511                       # number of demand (read+write) MSHR misses
system.l2.demand_mshr_misses::.cpu.data          1284                       # number of demand (read+write) MSHR misses
system.l2.demand_mshr_misses::total              2795                       # number of demand (read+write) MSHR misses
system.l2.overall_mshr_misses::.cpu.inst         1511                       # number of overall MSHR misses
system.l2.overall_mshr_misses::.cpu.data         1284                       # number of overall MSHR misses
system.l2.overall_mshr_misses::total             2795                       # number of overall MSHR misses
system.l2.demand_mshr_miss_latency::.cpu.inst    104061000                       # number of demand (read+write) MSHR miss cycles
system.l2.demand_mshr_miss_latency::.cpu.data     90813500                       # number of demand (read+write) MSHR miss cycles
system.l2.demand_mshr_miss_latency::total    194874500                       # number of demand (read+write) MSHR miss cycles
system.l2.overall_mshr_miss_latency::.cpu.inst    104061000                       # number of overall MSHR miss cycles
system.l2.overall_mshr_miss_latency::.cpu.data     90813500                       # number of overall MSHR miss cycles
system.l2.overall_mshr_miss_latency::total    194874500                       # number of overall MSHR miss cycles
system.l2.demand_mshr_miss_rate::.cpu.inst     0.063113                       # mshr miss rate for demand accesses
system.l2.demand_mshr_miss_rate::.cpu.data     0.784841                       # mshr miss rate for demand accesses
system.l2.demand_mshr_miss_rate::total       0.109278                       # mshr miss rate for demand accesses
system.l2.overall_mshr_miss_rate::.cpu.inst     0.063113                       # mshr miss rate for overall accesses
system.l2.overall_mshr_miss_rate::.cpu.data     0.784841                       # mshr miss rate for overall accesses
system.l2.overall_mshr_miss_rate::total      0.109278                       # mshr miss rate for overall accesses
system.l2.demand_avg_mshr_miss_latency::.cpu.inst 68868.960953                       # average overall mshr miss latency
system.l2.demand_avg_mshr_miss_latency::.cpu.data 70727.024922                       # average overall mshr miss latency
system.l2.demand_avg_mshr_miss_latency::total 69722.540250                       # average overall mshr miss latency
system.l2.overall_avg_mshr_miss_latency::.cpu.inst 68868.960953                       # average overall mshr miss latency
system.l2.overall_avg_mshr_miss_latency::.cpu.data 70727.024922                       # average overall mshr miss latency
system.l2.overall_avg_mshr_miss_latency::total 69722.540250                       # average overall mshr miss latency
system.l2.replacements                              0                       # number of replacements
system.l2.WritebackDirty_hits::.writebacks          607                       # number of WritebackDirty hits
system.l2.WritebackDirty_hits::total              607                       # number of WritebackDirty hits
system.l2.WritebackDirty_accesses::.writebacks          607                       # number of WritebackDirty accesses(hits+misses)
system.l2.WritebackDirty_accesses::total          607                       # number of WritebackDirty accesses(hits+misses)
system.l2.WritebackClean_hits::.writebacks        23875                       # number of WritebackClean hits
system.l2.WritebackClean_hits::total            23875                       # number of WritebackClean hits
system.l2.WritebackClean_accesses::.writebacks        23875                       # number of WritebackClean accesses(hits+misses)
system.l2.WritebackClean_accesses::total        23875                       # number of WritebackClean accesses(hits+misses)
system.l2.ReadExReq_hits::.cpu.data                87                       # number of ReadExReq hits
system.l2.ReadExReq_hits::total                    87                       # number of ReadExReq hits
system.l2.ReadExReq_misses::.cpu.data             764                       # number of ReadExReq misses
system.l2.ReadExReq_misses::total                 764                       # number of ReadExReq misses
system.l2.ReadExReq_miss_latency::.cpu.data     60803000                       # number of ReadExReq miss cycles
system.l2.ReadExReq_miss_latency::total      60803000                       # number of ReadExReq miss cycles
system.l2.ReadExReq_accesses::.cpu.data           851                       # number of ReadExReq accesses(hits+misses)
system.l2.ReadExReq_accesses::total               851                       # number of ReadExReq accesses(hits+misses)
system.l2.ReadExReq_miss_rate::.cpu.data     0.897767                       # miss rate for ReadExReq accesses
system.l2.ReadExReq_miss_rate::total         0.897767                       # miss rate for ReadExReq accesses
system.l2.ReadExReq_avg_miss_latency::.cpu.data 79585.078534                       # average ReadExReq miss latency
system.l2.ReadExReq_avg_miss_latency::total 79585.078534                       # average ReadExReq miss latency
system.l2.ReadExReq_mshr_misses::.cpu.data          764                       # number of ReadExReq MSHR misses
system.l2.ReadExReq_mshr_misses::total            764                       # number of ReadExReq MSHR misses
system.l2.ReadExReq_mshr_miss_latency::.cpu.data     53163000                       # number of ReadExReq MSHR miss cycles
system.l2.ReadExReq_mshr_miss_latency::total     53163000                       # number of ReadExReq MSHR miss cycles
system.l2.ReadExReq_mshr_miss_rate::.cpu.data     0.897767                       # mshr miss rate for ReadExReq accesses
system.l2.ReadExReq_mshr_miss_rate::total     0.897767                       # mshr miss rate for ReadExReq accesses
system.l2.ReadExReq_avg_mshr_miss_latency::.cpu.data 69585.078534                       # average ReadExReq mshr miss latency
system.l2.ReadExReq_avg_mshr_miss_latency::total 69585.078534                       # average ReadExReq mshr miss latency
system.l2.ReadCleanReq_hits::.cpu.inst          22430                       # number of ReadCleanReq hits
system.l2.ReadCleanReq_hits::total              22430                       # number of ReadCleanReq hits
system.l2.ReadCleanReq_misses::.cpu.inst         1511                       # number of ReadCleanReq misses
system.l2.ReadCleanReq_misses::total             1511                       # number of ReadCleanReq misses
system.l2.ReadCleanReq_miss_latency::.cpu.inst    119171000                       # number of ReadCleanReq miss cycles
system.l2.ReadCleanReq_miss_latency::total    119171000                       # number of ReadCleanReq miss cycles
system.l2.ReadCleanReq_accesses::.cpu.inst        23941                       # number of ReadCleanReq accesses(hits+misses)
system.l2.ReadCleanReq_accesses::total          23941                       # number of ReadCleanReq accesses(hits+misses)
system.l2.ReadCleanReq_miss_rate::.cpu.inst     0.063113                       # miss rate for ReadCleanReq accesses
system.l2.ReadCleanReq_miss_rate::total      0.063113                       # miss rate for ReadCleanReq accesses
system.l2.ReadCleanReq_avg_miss_latency::.cpu.inst 78868.960953                       # average ReadCleanReq miss latency
system.l2.ReadCleanReq_avg_miss_latency::total 78868.960953                       # average ReadCleanReq miss latency
system.l2.ReadCleanReq_mshr_misses::.cpu.inst         1511                       # number of ReadCleanReq MSHR misses
system.l2.ReadCleanReq_mshr_misses::total         1511                       # number of ReadCleanReq MSHR misses
system.l2.ReadCleanReq_mshr_miss_latency::.cpu.inst    104061000                       # number of ReadCleanReq MSHR miss cycles
system.l2.ReadCleanReq_mshr_miss_latency::total    104061000                       # number of ReadCleanReq MSHR miss cycles
system.l2.ReadCleanReq_mshr_miss_rate::.cpu.inst     0.063113                       # mshr miss rate for ReadCleanReq accesses
system.l2.ReadCleanReq_mshr_miss_rate::total     0.063113                       # mshr miss rate for ReadCleanReq accesses
system.l2.ReadCleanReq_avg_mshr_miss_latency::.cpu.inst 68868.960953                       # average ReadCleanReq mshr miss latency
system.l2.ReadCleanReq_avg_mshr_miss_latency::total 68868.960953                       # average ReadCleanReq mshr miss latency
[...]
system.cpu.dcache.overall_miss_latency::total    396763413                       # number of overall miss cycles
system.cpu.dcache.demand_accesses::.cpu.data       380034                       # number of demand (read+write) accesses
system.cpu.dcache.demand_accesses::total       380034                       # number of demand (read+write) accesses
system.cpu.dcache.overall_accesses::.cpu.data       380826                       # number of overall (read+write) accesses
system.cpu.dcache.overall_accesses::total       380826                       # number of overall (read+write) accesses
system.cpu.dcache.demand_miss_rate::.cpu.data     0.017530                       # miss rate for demand accesses
system.cpu.dcache.demand_miss_rate::total     0.017530                       # miss rate for demand accesses
system.cpu.dcache.overall_miss_rate::.cpu.data     0.017517                       # miss rate for overall accesses
system.cpu.dcache.overall_miss_rate::total     0.017517                       # miss rate for overall accesses
system.cpu.dcache.demand_avg_miss_latency::.cpu.data 59556.201291                       # average overall miss latency
system.cpu.dcache.demand_avg_miss_latency::total 59556.201291                       # average overall miss latency
system.cpu.dcache.overall_avg_miss_latency::.cpu.data 59475.852646                       # average overall miss latency
system.cpu.dcache.overall_avg_miss_latency::total 59475.852646                       # average overall miss latency
system.cpu.dcache.blocked_cycles::no_mshrs        13709                       # number of cycles access was blocked
system.cpu.dcache.blocked_cycles::no_targets         1181                       # number of cycles access was blocked
system.cpu.dcache.blocked::no_mshrs               325                       # number of cycles access was blocked
system.cpu.dcache.blocked::no_targets              12                       # number of cycles access was blocked
system.cpu.dcache.avg_blocked_cycles::no_mshrs    42.181538                       # average number of cycles each access was blocked
system.cpu.dcache.avg_blocked_cycles::no_targets    98.416667                       # average number of cycles each access was blocked
system.cpu.dcache.writebacks::.writebacks          607                       # number of writebacks
system.cpu.dcache.writebacks::total               607                       # number of writebacks
system.cpu.dcache.demand_mshr_hits::.cpu.data         5026                       # number of demand (read+write) MSHR hits
system.cpu.dcache.demand_mshr_hits::total         5026                       # number of demand (read+write) MSHR hits
system.cpu.dcache.overall_mshr_hits::.cpu.data         5026                       # number of overall MSHR hits
system.cpu.dcache.overall_mshr_hits::total         5026                       # number of overall MSHR hits
system.cpu.dcache.demand_mshr_misses::.cpu.data         1636                       # number of demand (read+write) MSHR misses
system.cpu.dcache.demand_mshr_misses::total         1636                       # number of demand (read+write) MSHR misses
system.cpu.dcache.overall_mshr_misses::.cpu.data         1645                       # number of overall MSHR misses
system.cpu.dcache.overall_mshr_misses::total         1645                       # number of overall MSHR misses
system.cpu.dcache.demand_mshr_miss_latency::.cpu.data    109749988                       # number of demand (read+write) MSHR miss cycles
system.cpu.dcache.demand_mshr_miss_latency::total    109749988                       # number of demand (read+write) MSHR miss cycles
system.cpu.dcache.overall_mshr_miss_latency::.cpu.data    110079488                       # number of overall MSHR miss cycles
system.cpu.dcache.overall_mshr_miss_latency::total    110079488                       # number of overall MSHR miss cycles
system.cpu.dcache.demand_mshr_miss_rate::.cpu.data     0.004305                       # mshr miss rate for demand accesses
system.cpu.dcache.demand_mshr_miss_rate::total     0.004305                       # mshr miss rate for demand accesses
system.cpu.dcache.overall_mshr_miss_rate::.cpu.data     0.004320                       # mshr miss rate for overall accesses
system.cpu.dcache.overall_mshr_miss_rate::total     0.004320                       # mshr miss rate for overall accesses
system.cpu.dcache.demand_avg_mshr_miss_latency::.cpu.data 67084.344743                       # average overall mshr miss latency
system.cpu.dcache.demand_avg_mshr_miss_latency::total 67084.344743                       # average overall mshr miss latency
system.cpu.dcache.overall_avg_mshr_miss_latency::.cpu.data 66917.621884                       # average overall mshr miss latency
system.cpu.dcache.overall_avg_mshr_miss_latency::total 66917.621884                       # average overall mshr miss latency
system.cpu.dcache.replacements                    754                       # number of replacements
system.cpu.dcache.ReadReq_hits::.cpu.data       223791                       # number of ReadReq hits
system.cpu.dcache.ReadReq_hits::total          223791                       # number of ReadReq hits
system.cpu.dcache.ReadReq_misses::.cpu.data         2551                       # number of ReadReq misses
system.cpu.dcache.ReadReq_misses::total          2551                       # number of ReadReq misses
system.cpu.dcache.ReadReq_miss_latency::.cpu.data    130974500                       # number of ReadReq miss cycles
system.cpu.dcache.ReadReq_miss_latency::total    130974500                       # number of ReadReq miss cycles
system.cpu.dcache.ReadReq_accesses::.cpu.data       226342                       # number of ReadReq accesses(hits+misses)
system.cpu.dcache.ReadReq_accesses::total       226342                       # number of ReadReq accesses(hits+misses)
system.cpu.dcache.ReadReq_miss_rate::.cpu.data     0.011271                       # miss rate for ReadReq accesses
system.cpu.dcache.ReadReq_miss_rate::total     0.011271                       # miss rate for ReadReq accesses
system.cpu.dcache.ReadReq_avg_miss_latency::.cpu.data 51342.414739                       # average ReadReq miss latency
system.cpu.dcache.ReadReq_avg_miss_latency::total 51342.414739                       # average ReadReq miss latency
system.cpu.dcache.ReadReq_mshr_hits::.cpu.data         1776                       # number of ReadReq MSHR hits
system.cpu.dcache.ReadReq_mshr_hits::total         1776                       # number of ReadReq MSHR hits
system.cpu.dcache.ReadReq_mshr_misses::.cpu.data          775                       # number of ReadReq MSHR misses
system.cpu.dcache.ReadReq_mshr_misses::total          775                       # number of ReadReq MSHR misses
system.cpu.dcache.ReadReq_mshr_miss_latency::.cpu.data     46414000                       # number of ReadReq MSHR miss cycles
system.cpu.dcache.ReadReq_mshr_miss_latency::total     46414000                       # number of ReadReq MSHR miss cycles
system.cpu.dcache.ReadReq_mshr_miss_rate::.cpu.data     0.003424                       # mshr miss rate for ReadReq accesses
system.cpu.dcache.ReadReq_mshr_miss_rate::total     0.003424                       # mshr miss rate for ReadReq accesses
system.cpu.dcache.ReadReq_avg_mshr_miss_latency::.cpu.data 59889.032258                       # average ReadReq mshr miss latency
system.cpu.dcache.ReadReq_avg_mshr_miss_latency::total 59889.032258                       # average ReadReq mshr miss latency
system.cpu.dcache.WriteReq_hits::.cpu.data       149581                       # number of WriteReq hits
system.cpu.dcache.WriteReq_hits::total         149581                       # number of WriteReq hits
system.cpu.dcache.WriteReq_misses::.cpu.data         4104                       # number of WriteReq misses
system.cpu.dcache.WriteReq_misses::total         4104                       # number of WriteReq misses
system.cpu.dcache.WriteReq_miss_latency::.cpu.data    265566416                       # number of WriteReq miss cycles
system.cpu.dcache.WriteReq_miss_latency::total    265566416                       # number of WriteReq miss cycles
system.cpu.dcache.WriteReq_accesses::.cpu.data       153685                       # number of WriteReq accesses(hits+misses)
system.cpu.dcache.WriteReq_accesses::total       153685                       # number of WriteReq accesses(hits+misses)
system.cpu.dcache.WriteReq_miss_rate::.cpu.data     0.026704                       # miss rate for WriteReq accesses
system.cpu.dcache.WriteReq_miss_rate::total     0.026704                       # miss rate for WriteReq accesses
system.cpu.dcache.WriteReq_avg_miss_latency::.cpu.data 64709.165692                       # average WriteReq miss latency
system.cpu.dcache.WriteReq_avg_miss_latency::total 64709.165692                       # average WriteReq miss latency
system.cpu.dcache.WriteReq_mshr_hits::.cpu.data         3250                       # number of WriteReq MSHR hits
system.cpu.dcache.WriteReq_mshr_hits::total         3250                       # number of WriteReq MSHR hits
system.cpu.dcache.WriteReq_mshr_misses::.cpu.data          854                       # number of WriteReq MSHR misses
system.cpu.dcache.WriteReq_mshr_misses::total          854                       # number of WriteReq MSHR misses
system.cpu.dcache.WriteReq_mshr_miss_latency::.cpu.data     63120491                       # number of WriteReq MSHR miss cycles
system.cpu.dcache.WriteReq_mshr_miss_latency::total     63120491                       # number of WriteReq MSHR miss cycles
system.cpu.dcache.WriteReq_mshr_miss_rate::.cpu.data     0.005557                       # mshr miss rate for WriteReq accesses
system.cpu.dcache.WriteReq_mshr_miss_rate::total     0.005557                       # mshr miss rate for WriteReq accesses
system.cpu.dcache.WriteReq_avg_mshr_miss_latency::.cpu.data 73911.581967                       # average WriteReq mshr miss latency
system.cpu.dcache.WriteReq_avg_mshr_miss_latency::total 73911.581967                       # average WriteReq mshr miss latency
system.cpu.dcache.SoftPFReq_hits::.cpu.data          783                       # number of SoftPFReq hits
system.cpu.dcache.SoftPFReq_hits::total           783                       # number of SoftPFReq hits
system.cpu.dcache.SoftPFReq_misses::.cpu.data            9                       # number of SoftPFReq misses
system.cpu.dcache.SoftPFReq_misses::total            9                       # number of SoftPFReq misses
system.cpu.dcache.SoftPFReq_accesses::.cpu.data          792                       # number of SoftPFReq accesses(hits+misses)
system.cpu.dcache.SoftPFReq_accesses::total          792                       # number of SoftPFReq accesses(hits+misses)
system.cpu.dcache.SoftPFReq_miss_rate::.cpu.data     0.011364                       # miss rate for SoftPFReq accesses
system.cpu.dcache.SoftPFReq_miss_rate::total     0.011364                       # miss rate for SoftPFReq accesses
system.cpu.dcache.SoftPFReq_mshr_misses::.cpu.data            9                       # number of SoftPFReq MSHR misses
system.cpu.dcache.SoftPFReq_mshr_misses::total            9                       # number of SoftPFReq MSHR misses
system.cpu.dcache.SoftPFReq_mshr_miss_latency::.cpu.data       329500                       # number of SoftPFReq MSHR miss cycles
system.cpu.dcache.SoftPFReq_mshr_miss_latency::total       329500                       # number of SoftPFReq MSHR miss cycles
system.cpu.dcache.SoftPFReq_mshr_miss_rate::.cpu.data     0.011364                       # mshr miss rate for SoftPFReq accesses
system.cpu.dcache.SoftPFReq_mshr_miss_rate::total     0.011364                       # mshr miss rate for SoftPFReq accesses
system.cpu.dcache.SoftPFReq_avg_mshr_miss_latency::.cpu.data 36611.111111                       # average SoftPFReq mshr miss latency
system.cpu.dcache.SoftPFReq_avg_mshr_miss_latency::total 36611.111111                       # average SoftPFReq mshr miss latency
system.cpu.dcache.WriteLineReq_misses::.cpu.data            7                       # number of WriteLineReq misses
system.cpu.dcache.WriteLineReq_misses::total            7                       # number of WriteLineReq misses
system.cpu.dcache.WriteLineReq_miss_latency::.cpu.data       222497                       # number of WriteLineReq miss cycles
system.cpu.dcache.WriteLineReq_miss_latency::total       222497                       # number of WriteLineReq miss cycles
system.cpu.dcache.WriteLineReq_accesses::.cpu.data            7                       # number of WriteLineReq accesses(hits+misses)
system.cpu.dcache.WriteLineReq_accesses::total            7                       # number of WriteLineReq accesses(hits+misses)
system.cpu.dcache.WriteLineReq_miss_rate::.cpu.data            1                       # miss rate for WriteLineReq accesses
system.cpu.dcache.WriteLineReq_miss_rate::total            1                       # miss rate for WriteLineReq accesses
system.cpu.dcache.WriteLineReq_avg_miss_latency::.cpu.data 31785.285714                       # average WriteLineReq miss latency
system.cpu.dcache.WriteLineReq_avg_miss_latency::total 31785.285714                       # average WriteLineReq miss latency
system.cpu.dcache.WriteLineReq_mshr_misses::.cpu.data            7                       # number of WriteLineReq MSHR misses
system.cpu.dcache.WriteLineReq_mshr_misses::total            7                       # number of WriteLineReq MSHR misses
system.cpu.dcache.WriteLineReq_mshr_miss_latency::.cpu.data       215497                       # number of WriteLineReq MSHR miss cycles
system.cpu.dcache.WriteLineReq_mshr_miss_latency::total       215497                       # number of WriteLineReq MSHR miss cycles
system.cpu.dcache.WriteLineReq_mshr_miss_rate::.cpu.data            1                       # mshr miss rate for WriteLineReq accesses
system.cpu.dcache.WriteLineReq_mshr_miss_rate::total            1                       # mshr miss rate for WriteLineReq accesses
system.cpu.dcache.WriteLineReq_avg_mshr_miss_latency::.cpu.data 30785.285714                       # average WriteLineReq mshr miss latency
system.cpu.dcache.WriteLineReq_avg_mshr_miss_latency::total 30785.285714                       # average WriteLineReq mshr miss latency
system.cpu.dcache.LoadLockedReq_hits::.cpu.data           67                       # number of LoadLockedReq hits
system.cpu.dcache.LoadLockedReq_hits::total           67                       # number of LoadLockedReq hits
system.cpu.dcache.LoadLockedReq_misses::.cpu.data            2                       # number of LoadLockedReq misses
system.cpu.dcache.LoadLockedReq_misses::total            2                       # number of LoadLockedReq misses
system.cpu.dcache.LoadLockedReq_miss_latency::.cpu.data       210500                       # number of LoadLockedReq miss cycles
system.cpu.dcache.LoadLockedReq_miss_latency::total       210500                       # number of LoadLockedReq miss cycles
system.cpu.dcache.LoadLockedReq_accesses::.cpu.data           69                       # number of LoadLockedReq accesses(hits+misses)
system.cpu.dcache.LoadLockedReq_accesses::total           69                       # number of LoadLockedReq accesses(hits+misses)
system.cpu.dcache.LoadLockedReq_miss_rate::.cpu.data     0.028986                       # miss rate for LoadLockedReq accesses
system.cpu.dcache.LoadLockedReq_miss_rate::total     0.028986                       # miss rate for LoadLockedReq accesses
system.cpu.dcache.LoadLockedReq_avg_miss_latency::.cpu.data       105250                       # average LoadLockedReq miss latency
system.cpu.dcache.LoadLockedReq_avg_miss_latency::total       105250                       # average LoadLockedReq miss latency
system.cpu.dcache.LoadLockedReq_mshr_hits::.cpu.data            1                       # number of LoadLockedReq MSHR hits
system.cpu.dcache.LoadLockedReq_mshr_hits::total            1                       # number of LoadLockedReq MSHR hits
system.cpu.dcache.LoadLockedReq_mshr_misses::.cpu.data            1                       # number of LoadLockedReq MSHR misses
system.cpu.dcache.LoadLockedReq_mshr_misses::total            1                       # number of LoadLockedReq MSHR misses
system.cpu.dcache.LoadLockedReq_mshr_miss_latency::.cpu.data       108500                       # number of LoadLockedReq MSHR miss cycles
system.cpu.dcache.LoadLockedReq_mshr_miss_latency::total       108500                       # number of LoadLockedReq MSHR miss cycles
system.cpu.dcache.LoadLockedReq_mshr_miss_rate::.cpu.data     0.014493                       # mshr miss rate for LoadLockedReq accesses
system.cpu.dcache.LoadLockedReq_mshr_miss_rate::total     0.014493                       # mshr miss rate for LoadLockedReq accesses
system.cpu.dcache.LoadLockedReq_avg_mshr_miss_latency::.cpu.data       108500                       # average LoadLockedReq mshr miss latency
system.cpu.dcache.LoadLockedReq_avg_mshr_miss_latency::total       108500                       # average LoadLockedReq mshr miss latency
system.cpu.dcache.StoreCondReq_hits::.cpu.data           58                       # number of StoreCondReq hits
system.cpu.dcache.StoreCondReq_hits::total           58                       # number of StoreCondReq hits
system.cpu.dcache.StoreCondReq_accesses::.cpu.data           58                       # number of StoreCondReq accesses(hits+misses)
system.cpu.dcache.StoreCondReq_accesses::total           58                       # number of StoreCondReq accesses(hits+misses)
system.cpu.dcache.power_state.pwrStateResidencyTicks::UNDEFINED    646961000                       # Cumulative time (in ticks) in various power states
system.cpu.dcache.tags.tagsinuse           552.044998                       # Cycle average of tags in use
system.cpu.dcache.tags.total_refs              375926                       # Total number of references to valid blocks.
system.cpu.dcache.tags.sampled_refs              1646                       # Sample count of references to valid blocks.
system.cpu.dcache.tags.avg_refs            228.387606                       # Average number of references to valid blocks.
system.cpu.dcache.tags.warmup_cycle            176500                       # Cycle when the warmup percentage was hit.
system.cpu.dcache.tags.occ_blocks::.cpu.data   552.044998                       # Average occupied blocks per requestor
system.cpu.dcache.tags.occ_percent::.cpu.data     0.539106                       # Average percentage of cache occupancy
system.cpu.dcache.tags.occ_percent::total     0.539106                       # Average percentage of cache occupancy
system.cpu.dcache.tags.occ_task_id_blocks::1024          892                       # Occupied blocks per task id
system.cpu.dcache.tags.age_task_id_blocks_1024::0           23                       # Occupied blocks per task id
system.cpu.dcache.tags.age_task_id_blocks_1024::1          381                       # Occupied blocks per task id
system.cpu.dcache.tags.age_task_id_blocks_1024::2          488                       # Occupied blocks per task id
system.cpu.dcache.tags.occ_task_id_percent::1024     0.871094                       # Percentage of cache occupancy per task id
system.cpu.dcache.tags.tag_accesses            763552                       # Number of tag accesses
system.cpu.dcache.tags.data_accesses           763552                       # Number of data accesses
system.cpu.dcache.tags.power_state.pwrStateResidencyTicks::UNDEFINED    646961000                       # Cumulative time (in ticks) in various power states
system.cpu.power_state.pwrStateResidencyTicks::ON    646961000                       # Cumulative time (in ticks) in various power states

---------- End Simulation Statistics   ----------
