
---------- Begin Simulation Statistics ----------
final_tick                                   81575000                       # Number of ticks from beginning of simulation (restored from checkpoints and never reset)
host_inst_rate                                  87797                       # Simulator instruction rate (inst/s)
host_mem_usage                                 864516                       # Number of bytes of host memory used
host_op_rate                                   107167                       # Simulator op (including micro ops) rate (op/s)
host_seconds                                     0.33                       # Real time elapsed on the host
host_tick_rate                              243843419                       # Simulator tick rate (ticks/s)
sim_freq                                 1000000000000                       # Frequency of simulated ticks
sim_insts                                       29355                       # Number of instructions simulated
sim_ops                                         35849                       # Number of ops (including micro ops) simulated
sim_seconds                                  0.000082                       # Number of seconds simulated
sim_ticks                                    81575000                       # Number of ticks simulated
system.cpu.branchPred.BTBCorrect                    0                       # Number of correct BTB predictions (this stat may not work properly.
system.cpu.branchPred.BTBHitPct             68.394289                       # BTB Hit Percentage
system.cpu.branchPred.BTBHits                    3497                       # Number of BTB hits
system.cpu.branchPred.BTBLookups                 5113                       # Number of BTB lookups
system.cpu.branchPred.RASInCorrect                  3                       # Number of incorrect RAS predictions.
system.cpu.branchPred.condIncorrect              1532                       # Number of conditional branches incorrect
system.cpu.branchPred.condPredicted              8171                       # Number of conditional branches predicted
system.cpu.branchPred.indirectHits                 44                       # Number of indirect target hits.
system.cpu.branchPred.indirectLookups             381                       # Number of indirect predictor lookups.
system.cpu.branchPred.indirectMisses              337                       # Number of indirect misses.
system.cpu.branchPred.lookups                   11378                       # Number of BP lookups
system.cpu.branchPred.usedRAS                     968                       # Number of times the RAS was used to get a target.
system.cpu.branchPredindirectMispredicted          125                       # Number of mispredicted indirect branches.
system.cpu.cc_regfile_reads                     10492                       # number of cc regfile reads
system.cpu.cc_regfile_writes                    10167                       # number of cc regfile writes
system.cpu.commit.amos                              0                       # Number of atomic instructions committed
system.cpu.commit.branchMispredicts              1035                       # The number of times a branch was mispredicted
system.cpu.commit.branches                       6765                       # Number of branches committed
system.cpu.commit.bw_lim_events                   876                       # number cycles where commit BW limit reached
system.cpu.commit.commitNonSpecStalls              48                       # The number of times commit has been forced to stall to communicate backwards
system.cpu.commit.commitSquashedInsts           12382                       # The number of squashed insts skipped by commit
system.cpu.commit.committedInsts                29435                       # Number of instructions committed
system.cpu.commit.committedOps                  35929                       # Number of ops (including micro ops) committed
system.cpu.commit.committed_per_cycle::samples        77922                       # Number of insts commited each cycle
system.cpu.commit.committed_per_cycle::mean     0.461089                       # Number of insts commited each cycle
system.cpu.commit.committed_per_cycle::stdev     1.333595                       # Number of insts commited each cycle
system.cpu.commit.committed_per_cycle::underflows            0      0.00%      0.00% # Number of insts commited each cycle
system.cpu.commit.committed_per_cycle::0        64534     82.82%     82.82% # Number of insts commited each cycle
system.cpu.commit.committed_per_cycle::1         5507      7.07%     89.89% # Number of insts commited each cycle
system.cpu.commit.committed_per_cycle::2         2842      3.65%     93.53% # Number of insts commited each cycle
system.cpu.commit.committed_per_cycle::3         1560      2.00%     95.54% # Number of insts commited each cycle
system.cpu.commit.committed_per_cycle::4         1010      1.30%     96.83% # Number of insts commited each cycle
system.cpu.commit.committed_per_cycle::5          892      1.14%     97.98% # Number of insts commited each cycle
system.cpu.commit.committed_per_cycle::6          357      0.46%     98.43% # Number of insts commited each cycle
system.cpu.commit.committed_per_cycle::7          344      0.44%     98.88% # Number of insts commited each cycle
system.cpu.commit.committed_per_cycle::8          876      1.12%    100.00% # Number of insts commited each cycle
system.cpu.commit.committed_per_cycle::overflows            0      0.00%    100.00% # Number of insts commited each cycle
system.cpu.commit.committed_per_cycle::min_value            0                       # Number of insts commited each cycle
system.cpu.commit.committed_per_cycle::max_value            8                       # Number of insts commited each cycle
system.cpu.commit.committed_per_cycle::total        77922                       # Number of insts commited each cycle
system.cpu.commit.fp_insts                          0                       # Number of committed floating point instructions.
system.cpu.commit.function_calls                  609                       # Number of function calls committed.
system.cpu.commit.int_insts                     32730                       # Number of committed integer instructions.
system.cpu.commit.loads                          5438                       # Number of loads committed
system.cpu.commit.membars                          24                       # Number of memory barriers committed
system.cpu.commit.op_class_0::No_OpClass            7      0.02%      0.02% # Class of committed instruction
system.cpu.commit.op_class_0::IntAlu            24199     67.35%     67.37% # Class of committed instruction
system.cpu.commit.op_class_0::IntMult              53      0.15%     67.52% # Class of committed instruction
system.cpu.commit.op_class_0::IntDiv                6      0.02%     67.54% # Class of committed instruction
system.cpu.commit.op_class_0::FloatAdd              0      0.00%     67.54% # Class of committed instruction
system.cpu.commit.op_class_0::FloatCmp              0      0.00%     67.54% # Class of committed instruction
system.cpu.commit.op_class_0::FloatCvt              0      0.00%     67.54% # Class of committed instruction
system.cpu.commit.op_class_0::FloatMult             0      0.00%     67.54% # Class of committed instruction
system.cpu.commit.op_class_0::FloatMultAcc            0      0.00%     67.54% # Class of committed instruction
system.cpu.commit.op_class_0::FloatDiv              0      0.00%     67.54% # Class of committed instruction
system.cpu.commit.op_class_0::FloatMisc             0      0.00%     67.54% # Class of committed instruction
system.cpu.commit.op_class_0::FloatSqrt             0      0.00%     67.54% # Class of committed instruction
system.cpu.commit.op_class_0::SimdAdd              26      0.07%     67.61% # Class of committed instruction
system.cpu.commit.op_class_0::SimdAddAcc            0      0.00%     67.61% # Class of committed instruction
system.cpu.commit.op_class_0::SimdAlu              32      0.09%     67.70% # Class of committed instruction
system.cpu.commit.op_class_0::SimdCmp              28      0.08%     67.78% # Class of committed instruction
system.cpu.commit.op_class_0::SimdCvt               0      0.00%     67.78% # Class of committed instruction
system.cpu.commit.op_class_0::SimdMisc             38      0.11%     67.88% # Class of committed instruction
system.cpu.commit.op_class_0::SimdMult              0      0.00%     67.88% # Class of committed instruction
system.cpu.commit.op_class_0::SimdMultAcc            0      0.00%     67.88% # Class of committed instruction
system.cpu.commit.op_class_0::SimdShift             0      0.00%     67.88% # Class of committed instruction
system.cpu.commit.op_class_0::SimdShiftAcc            0      0.00%     67.88% # Class of committed instruction
system.cpu.commit.op_class_0::SimdDiv               0      0.00%     67.88% # Class of committed instruction
system.cpu.commit.op_class_0::SimdSqrt              0      0.00%     67.88% # Class of committed instruction
system.cpu.commit.op_class_0::SimdFloatAdd            0      0.00%     67.88% # Class of committed instruction
system.cpu.commit.op_class_0::SimdFloatAlu            0      0.00%     67.88% # Class of committed instruction
system.cpu.commit.op_class_0::SimdFloatCmp            0      0.00%     67.88% # Class of committed instruction
system.cpu.commit.op_class_0::SimdFloatCvt            0      0.00%     67.88% # Class of committed instruction
system.cpu.commit.op_class_0::SimdFloatDiv            0      0.00%     67.88% # Class of committed instruction
system.cpu.commit.op_class_0::SimdFloatMisc            0      0.00%     67.88% # Class of committed instruction
system.cpu.commit.op_class_0::SimdFloatMult            0      0.00%     67.88% # Class of committed instruction
system.cpu.commit.op_class_0::SimdFloatMultAcc            0      0.00%     67.88% # Class of committed instruction
system.cpu.commit.op_class_0::SimdFloatSqrt            0      0.00%     67.88% # Class of committed instruction
system.cpu.commit.op_class_0::SimdReduceAdd            0      0.00%     67.88% # Class of committed instruction
system.cpu.commit.op_class_0::SimdReduceAlu            0      0.00%     67.88% # Class of committed instruction
system.cpu.commit.op_class_0::SimdReduceCmp            0      0.00%     67.88% # Class of committed instruction
system.cpu.commit.op_class_0::SimdFloatReduceAdd            0      0.00%     67.88% # Class of committed instruction
system.cpu.commit.op_class_0::SimdFloatReduceCmp            0      0.00%     67.88% # Class of committed instruction
system.cpu.commit.op_class_0::SimdAes               0      0.00%     67.88% # Class of committed instruction
system.cpu.commit.op_class_0::SimdAesMix            0      0.00%     67.88% # Class of committed instruction
system.cpu.commit.op_class_0::SimdSha1Hash            0      0.00%     67.88% # Class of committed instruction
system.cpu.commit.op_class_0::SimdSha1Hash2            0      0.00%     67.88% # Class of committed instruction
system.cpu.commit.op_class_0::SimdSha256Hash            0      0.00%     67.88% # Class of committed instruction
system.cpu.commit.op_class_0::SimdSha256Hash2            0      0.00%     67.88% # Class of committed instruction
system.cpu.commit.op_class_0::SimdShaSigma2            0      0.00%     67.88% # Class of committed instruction
system.cpu.commit.op_class_0::SimdShaSigma3            0      0.00%     67.88% # Class of committed instruction
system.cpu.commit.op_class_0::SimdPredAlu            0      0.00%     67.88% # Class of committed instruction
system.cpu.commit.op_class_0::MemRead            5438     15.14%     83.02% # Class of committed instruction
system.cpu.commit.op_class_0::MemWrite           6102     16.98%    100.00% # Class of committed instruction
system.cpu.commit.op_class_0::FloatMemRead            0      0.00%    100.00% # Class of committed instruction
system.cpu.commit.op_class_0::FloatMemWrite            0      0.00%    100.00% # Class of committed instruction
system.cpu.commit.op_class_0::IprAccess             0      0.00%    100.00% # Class of committed instruction
system.cpu.commit.op_class_0::InstPrefetch            0      0.00%    100.00% # Class of committed instruction
system.cpu.commit.op_class_0::total             35929                       # Class of committed instruction
system.cpu.commit.refs                          11540                       # Number of memory references committed
system.cpu.commit.swp_count                         0                       # Number of s/w prefetches committed
system.cpu.commit.vec_insts                       477                       # Number of committed Vector instructions.
system.cpu.committedInsts                       29355                       # Number of Instructions Simulated
system.cpu.committedOps                         35849                       # Number of Ops (including micro ops) Simulated
system.cpu.cpi                               5.557861                       # CPI: Cycles Per Instruction
system.cpu.cpi_total                         5.557861                       # CPI: Total CPI of All Threads
system.cpu.decode.BlockedCycles                 10356                       # Number of cycles decode is blocked
system.cpu.decode.BranchMispred                   501                       # Number of times decode detected a branch misprediction
system.cpu.decode.BranchResolved                 3806                       # Number of times decode resolved a branch
system.cpu.decode.DecodedInsts                  51640                       # Number of instructions handled by decode
system.cpu.decode.IdleCycles                    58959                       # Number of cycles decode is idle
system.cpu.decode.RunCycles                      9190                       # Number of cycles decode is running
system.cpu.decode.SquashCycles                   1075                       # Number of cycles decode is squashing
system.cpu.decode.SquashedInsts                  1737                       # Number of squashed instructions handled by decode
system.cpu.decode.UnblockCycles                   544                       # Number of cycles decode is unblocking
system.cpu.dtb.accesses                             0                       # DTB accesses
system.cpu.dtb.align_faults                         0                       # Number of TLB faults due to alignment restrictions
system.cpu.dtb.domain_faults                        0                       # Number of TLB faults due to domain restrictions
system.cpu.dtb.flush_entries                        0                       # Number of entries that have been flushed from TLB
system.cpu.dtb.flush_tlb                            0                       # Number of times complete TLB was flushed
system.cpu.dtb.flush_tlb_asid                       0                       # Number of times TLB was flushed by ASID
system.cpu.dtb.flush_tlb_mva                        0                       # Number of times TLB was flushed by MVA
system.cpu.dtb.flush_tlb_mva_asid                   0                       # Number of times TLB was flushed by MVA & ASID
system.cpu.dtb.hits                                 0                       # DTB hits
system.cpu.dtb.inst_accesses                        0                       # ITB inst accesses
system.cpu.dtb.inst_hits                            0                       # ITB inst hits
system.cpu.dtb.inst_misses                          0                       # ITB inst misses
system.cpu.dtb.misses                               0                       # DTB misses
system.cpu.dtb.perms_faults                         0                       # Number of TLB faults due to permissions restrictions
system.cpu.dtb.prefetch_faults                      0                       # Number of TLB faults due to prefetch
system.cpu.dtb.read_accesses                        0                       # DTB read accesses
system.cpu.dtb.read_hits                            0                       # DTB read hits
system.cpu.dtb.read_misses                          0                       # DTB read misses
system.cpu.dtb.stage2_mmu.stage2_tlb.accesses            0                       # DTB accesses
system.cpu.dtb.stage2_mmu.stage2_tlb.align_faults            0                       # Number of TLB faults due to alignment restrictions
system.cpu.dtb.stage2_mmu.stage2_tlb.domain_faults            0                       # Number of TLB faults due to domain restrictions
system.cpu.dtb.stage2_mmu.stage2_tlb.flush_entries            0                       # Number of entries that have been flushed from TLB
system.cpu.dtb.stage2_mmu.stage2_tlb.flush_tlb            0                       # Number of times complete TLB was flushed
system.cpu.dtb.stage2_mmu.stage2_tlb.flush_tlb_asid            0                       # Number of times TLB was flushed by ASID
system.cpu.dtb.stage2_mmu.stage2_tlb.flush_tlb_mva            0                       # Number of times TLB was flushed by MVA
system.cpu.dtb.stage2_mmu.stage2_tlb.flush_tlb_mva_asid            0                       # Number of times TLB was flushed by MVA & ASID
system.cpu.dtb.stage2_mmu.stage2_tlb.hits            0                       # DTB hits
system.cpu.dtb.stage2_mmu.stage2_tlb.inst_accesses            0                       # ITB inst accesses
system.cpu.dtb.stage2_mmu.stage2_tlb.inst_hits            0                       # ITB inst hits
system.cpu.dtb.stage2_mmu.stage2_tlb.inst_misses            0                       # ITB inst misses
system.cpu.dtb.stage2_mmu.stage2_tlb.misses            0                       # DTB misses
system.cpu.dtb.stage2_mmu.stage2_tlb.perms_faults            0                       # Number of TLB faults due to permissions restrictions
system.cpu.dtb.stage2_mmu.stage2_tlb.prefetch_faults            0                       # Number of TLB faults due to prefetch
system.cpu.dtb.stage2_mmu.stage2_tlb.read_accesses            0                       # DTB read accesses
system.cpu.dtb.stage2_mmu.stage2_tlb.read_hits            0                       # DTB read hits
system.cpu.dtb.stage2_mmu.stage2_tlb.read_misses            0                       # DTB read misses
system.cpu.dtb.stage2_mmu.stage2_tlb.walker.walkRequestOrigin_Requested::Data            0                       # Table walker requests started/completed, data/inst
system.cpu.dtb.stage2_mmu.stage2_tlb.walker.walkRequestOrigin_Requested::Inst            0                       # Table walker requests started/completed, data/inst
system.cpu.dtb.stage2_mmu.stage2_tlb.walker.walkRequestOrigin_Requested::total            0                       # Table walker requests started/completed, data/inst
system.cpu.dtb.stage2_mmu.stage2_tlb.walker.walkRequestOrigin_Completed::Data            0                       # Table walker requests started/completed, data/inst
system.cpu.dtb.stage2_mmu.stage2_tlb.walker.walkRequestOrigin_Completed::Inst            0                       # Table walker requests started/completed, data/inst
system.cpu.dtb.stage2_mmu.stage2_tlb.walker.walkRequestOrigin_Completed::total            0                       # Table walker requests started/completed, data/inst
system.cpu.dtb.stage2_mmu.stage2_tlb.walker.walkRequestOrigin::total            0                       # Table walker requests started/completed, data/inst
system.cpu.dtb.stage2_mmu.stage2_tlb.walker.walks            0                       # Table walker walks requested
system.cpu.dtb.stage2_mmu.stage2_tlb.write_accesses            0                       # DTB write accesses
system.cpu.dtb.stage2_mmu.stage2_tlb.write_hits            0                       # DTB write hits
system.cpu.dtb.stage2_mmu.stage2_tlb.write_misses            0                       # DTB write misses
system.cpu.dtb.walker.walkRequestOrigin_Requested::Data            0                       # Table walker requests started/completed, data/inst
system.cpu.dtb.walker.walkRequestOrigin_Requested::Inst            0                       # Table walker requests started/completed, data/inst
system.cpu.dtb.walker.walkRequestOrigin_Requested::total            0                       # Table walker requests started/completed, data/inst
system.cpu.dtb.walker.walkRequestOrigin_Completed::Data            0                       # Table walker requests started/completed, data/inst
system.cpu.dtb.walker.walkRequestOrigin_Completed::Inst            0                       # Table walker requests started/completed, data/inst
system.cpu.dtb.walker.walkRequestOrigin_Completed::total            0                       # Table walker requests started/completed, data/inst
system.cpu.dtb.walker.walkRequestOrigin::total            0                       # Table walker requests started/completed, data/inst
system.cpu.dtb.walker.walks                         0                       # Table walker walks requested
system.cpu.dtb.write_accesses                       0                       # DTB write accesses
system.cpu.dtb.write_hits                           0                       # DTB write hits
system.cpu.dtb.write_misses                         0                       # DTB write misses
system.cpu.fetch.Branches                       11378                       # Number of branches that fetch encountered
system.cpu.fetch.CacheLines                      7173                       # Number of cache lines fetched
system.cpu.fetch.Cycles                         14475                       # Number of cycles fetch has run and was not squashing or blocked
system.cpu.fetch.IcacheSquashes                  1213                       # Number of outstanding Icache misses that were squashed
system.cpu.fetch.IcacheWaitRetryStallCycles           73                       # Number of stall cycles due to full MSHR
system.cpu.fetch.Insts                          48431                       # Number of instructions fetch has processed
system.cpu.fetch.MiscStallCycles                    6                       # Number of cycles fetch has spent waiting on interrupts, or bad addresses, or out of MSHRs
system.cpu.fetch.SquashCycles                    3144                       # Number of cycles fetch has spent squashing
system.cpu.fetch.branchRate                  0.069739                       # Number of branch fetches per cycle
system.cpu.fetch.icacheStallCycles              63998                       # Number of cycles fetch is stalled on an Icache miss
system.cpu.fetch.predictedBranches               4509                       # Number of branches that fetch has predicted taken
system.cpu.fetch.rate                        0.296848                       # Number of inst fetches per cycle
system.cpu.fetch.rateDist::samples              80124                       # Number of instructions fetched each cycle (Total)
system.cpu.fetch.rateDist::mean              0.721993                       # Number of instructions fetched each cycle (Total)
system.cpu.fetch.rateDist::stdev             2.059007                       # Number of instructions fetched each cycle (Total)
system.cpu.fetch.rateDist::underflows               0      0.00%      0.00% # Number of instructions fetched each cycle (Total)
system.cpu.fetch.rateDist::0                    69464     86.70%     86.70% # Number of instructions fetched each cycle (Total)
system.cpu.fetch.rateDist::1                      849      1.06%     87.76% # Number of instructions fetched each cycle (Total)
system.cpu.fetch.rateDist::2                     1128      1.41%     89.16% # Number of instructions fetched each cycle (Total)
system.cpu.fetch.rateDist::3                      935      1.17%     90.33% # Number of instructions fetched each cycle (Total)
system.cpu.fetch.rateDist::4                     1335      1.67%     92.00% # Number of instructions fetched each cycle (Total)
system.cpu.fetch.rateDist::5                      800      1.00%     92.99% # Number of instructions fetched each cycle (Total)
system.cpu.fetch.rateDist::6                      828      1.03%     94.03% # Number of instructions fetched each cycle (Total)
system.cpu.fetch.rateDist::7                      649      0.81%     94.84% # Number of instructions fetched each cycle (Total)
system.cpu.fetch.rateDist::8                     4136      5.16%    100.00% # Number of instructions fetched each cycle (Total)
system.cpu.fetch.rateDist::overflows                0      0.00%    100.00% # Number of instructions fetched each cycle (Total)
system.cpu.fetch.rateDist::min_value                0                       # Number of instructions fetched each cycle (Total)
system.cpu.fetch.rateDist::max_value                8                       # Number of instructions fetched each cycle (Total)
system.cpu.fetch.rateDist::total                80124                       # Number of instructions fetched each cycle (Total)
system.cpu.idleCycles                           83027                       # Total number of cycles that the CPU has spent unscheduled due to idling
system.cpu.iew.branchMispredicts                 1176                       # Number of branch mispredicts detected at execute
system.cpu.iew.exec_branches                     8046                       # Number of branches executed
system.cpu.iew.exec_nop                           145                       # number of nop insts executed
system.cpu.iew.exec_rate                     0.270173                       # Inst execution rate
system.cpu.iew.exec_refs                        14207                       # number of memory reference insts executed
system.cpu.iew.exec_stores                       6842                       # Number of stores executed
system.cpu.iew.exec_swp                             0                       # number of swp insts executed
system.cpu.iew.iewBlockCycles                    2191                       # Number of cycles IEW is blocking
system.cpu.iew.iewDispLoadInsts                  7549                       # Number of dispatched load instructions
system.cpu.iew.iewDispNonSpecInsts                 72                       # Number of dispatched non-speculative instructions
system.cpu.iew.iewDispSquashedInsts               180                       # Number of squashed instructions skipped by dispatch
system.cpu.iew.iewDispStoreInsts                 7800                       # Number of dispatched store instructions
system.cpu.iew.iewDispatchedInsts               48275                       # Number of instructions dispatched to IQ
system.cpu.iew.iewExecLoadInsts                  7365                       # Number of load instructions executed
system.cpu.iew.iewExecSquashedInsts              1072                       # Number of squashed instructions skipped in execute
system.cpu.iew.iewExecutedInsts                 44079                       # Number of executed instructions
system.cpu.iew.iewIQFullEvents                     10                       # Number of times the IQ has become full, causing a stall
system.cpu.iew.iewIdleCycles                        0                       # Number of cycles IEW is idle
system.cpu.iew.iewLSQFullEvents                   282                       # Number of times the LSQ has become full, causing a stall
system.cpu.iew.iewSquashCycles                   1075                       # Number of cycles IEW is squashing
system.cpu.iew.iewUnblockCycles                   286                       # Number of cycles IEW is unblocking
system.cpu.iew.lsq.thread0.blockedLoads             0                       # Number of blocked loads due to partial load-store forwarding
system.cpu.iew.lsq.thread0.cacheBlocked            94                       # Number of times an access to memory failed due to the cache being blocked
system.cpu.iew.lsq.thread0.forwLoads               54                       # Number of loads that had data forwarded from stores
system.cpu.iew.lsq.thread0.ignoredResponses            4                       # Number of memory responses ignored because the instruction is squashed
system.cpu.iew.lsq.thread0.invAddrLoads             0                       # Number of loads ignored due to an invalid address
system.cpu.iew.lsq.thread0.invAddrSwpfs             0                       # Number of software prefetches ignored due to an invalid address
system.cpu.iew.lsq.thread0.memOrderViolation           20                       # Number of memory ordering violations
system.cpu.iew.lsq.thread0.rescheduledLoads           84                       # Number of loads that were rescheduled
system.cpu.iew.lsq.thread0.squashedLoads         2111                       # Number of loads squashed
system.cpu.iew.lsq.thread0.squashedStores         1698                       # Number of stores squashed
system.cpu.iew.memOrderViolationEvents             20                       # Number of memory order violations
system.cpu.iew.predictedNotTakenIncorrect         1036                       # Number of branches that were predicted not taken incorrectly
system.cpu.iew.predictedTakenIncorrect            140                       # Number of branches that were predicted taken incorrectly
system.cpu.iew.wb_consumers                     35966                       # num instructions consuming a value
system.cpu.iew.wb_count                         42664                       # cumulative count of insts written-back
system.cpu.iew.wb_fanout                     0.567286                       # average fanout of values written-back
system.cpu.iew.wb_producers                     20403                       # num instructions producing a value
system.cpu.iew.wb_rate                       0.261500                       # insts written-back per cycle
system.cpu.iew.wb_sent                          43260                       # cumulative count of insts sent to commit
system.cpu.int_regfile_reads                    49379                       # number of integer regfile reads
system.cpu.int_regfile_writes                   30177                       # number of integer regfile writes
system.cpu.ipc                               0.179925                       # IPC: Instructions Per Cycle
system.cpu.ipc_total                         0.179925                       # IPC: Total IPC of All Threads
system.cpu.iq.FU_type_0::No_OpClass                 9      0.02%      0.02% # Type of FU issued
system.cpu.iq.FU_type_0::IntAlu                 30197     66.88%     66.90% # Type of FU issued
system.cpu.iq.FU_type_0::IntMult                   54      0.12%     67.02% # Type of FU issued
system.cpu.iq.FU_type_0::IntDiv                     7      0.02%     67.04% # Type of FU issued
system.cpu.iq.FU_type_0::FloatAdd                   0      0.00%     67.04% # Type of FU issued
system.cpu.iq.FU_type_0::FloatCmp                   0      0.00%     67.04% # Type of FU issued
system.cpu.iq.FU_type_0::FloatCvt                   0      0.00%     67.04% # Type of FU issued
system.cpu.iq.FU_type_0::FloatMult                  0      0.00%     67.04% # Type of FU issued
system.cpu.iq.FU_type_0::FloatMultAcc               0      0.00%     67.04% # Type of FU issued
system.cpu.iq.FU_type_0::FloatDiv                   0      0.00%     67.04% # Type of FU issued
system.cpu.iq.FU_type_0::FloatMisc                  1      0.00%     67.04% # Type of FU issued
system.cpu.iq.FU_type_0::FloatSqrt                  0      0.00%     67.04% # Type of FU issued
system.cpu.iq.FU_type_0::SimdAdd                   32      0.07%     67.11% # Type of FU issued
system.cpu.iq.FU_type_0::SimdAddAcc                 0      0.00%     67.11% # Type of FU issued
system.cpu.iq.FU_type_0::SimdAlu                   36      0.08%     67.19% # Type of FU issued
system.cpu.iq.FU_type_0::SimdCmp                   34      0.08%     67.26% # Type of FU issued
system.cpu.iq.FU_type_0::SimdCvt                    0      0.00%     67.26% # Type of FU issued
system.cpu.iq.FU_type_0::SimdMisc                  43      0.10%     67.36% # Type of FU issued
system.cpu.iq.FU_type_0::SimdMult                   0      0.00%     67.36% # Type of FU issued
system.cpu.iq.FU_type_0::SimdMultAcc                0      0.00%     67.36% # Type of FU issued
system.cpu.iq.FU_type_0::SimdShift                  0      0.00%     67.36% # Type of FU issued
system.cpu.iq.FU_type_0::SimdShiftAcc               0      0.00%     67.36% # Type of FU issued
system.cpu.iq.FU_type_0::SimdDiv                    0      0.00%     67.36% # Type of FU issued
system.cpu.iq.FU_type_0::SimdSqrt                   0      0.00%     67.36% # Type of FU issued
system.cpu.iq.FU_type_0::SimdFloatAdd               0      0.00%     67.36% # Type of FU issued
system.cpu.iq.FU_type_0::SimdFloatAlu               0      0.00%     67.36% # Type of FU issued
system.cpu.iq.FU_type_0::SimdFloatCmp               0      0.00%     67.36% # Type of FU issued
system.cpu.iq.FU_type_0::SimdFloatCvt               0      0.00%     67.36% # Type of FU issued
system.cpu.iq.FU_type_0::SimdFloatDiv               0      0.00%     67.36% # Type of FU issued
system.cpu.iq.FU_type_0::SimdFloatMisc              0      0.00%     67.36% # Type of FU issued
system.cpu.iq.FU_type_0::SimdFloatMult              0      0.00%     67.36% # Type of FU issued
system.cpu.iq.FU_type_0::SimdFloatMultAcc            0      0.00%     67.36% # Type of FU issued
system.cpu.iq.FU_type_0::SimdFloatSqrt              0      0.00%     67.36% # Type of FU issued
system.cpu.iq.FU_type_0::SimdReduceAdd              0      0.00%     67.36% # Type of FU issued
system.cpu.iq.FU_type_0::SimdReduceAlu              0      0.00%     67.36% # Type of FU issued
system.cpu.iq.FU_type_0::SimdReduceCmp              0      0.00%     67.36% # Type of FU issued
system.cpu.iq.FU_type_0::SimdFloatReduceAdd            0      0.00%     67.36% # Type of FU issued
system.cpu.iq.FU_type_0::SimdFloatReduceCmp            0      0.00%     67.36% # Type of FU issued
system.cpu.iq.FU_type_0::SimdAes                    0      0.00%     67.36% # Type of FU issued
system.cpu.iq.FU_type_0::SimdAesMix                 0      0.00%     67.36% # Type of FU issued
system.cpu.iq.FU_type_0::SimdSha1Hash               0      0.00%     67.36% # Type of FU issued
system.cpu.iq.FU_type_0::SimdSha1Hash2              0      0.00%     67.36% # Type of FU issued
system.cpu.iq.FU_type_0::SimdSha256Hash             0      0.00%     67.36% # Type of FU issued
system.cpu.iq.FU_type_0::SimdSha256Hash2            0      0.00%     67.36% # Type of FU issued
system.cpu.iq.FU_type_0::SimdShaSigma2              0      0.00%     67.36% # Type of FU issued
system.cpu.iq.FU_type_0::SimdShaSigma3              0      0.00%     67.36% # Type of FU issued
system.cpu.iq.FU_type_0::SimdPredAlu                0      0.00%     67.36% # Type of FU issued
system.cpu.iq.FU_type_0::MemRead                 7600     16.83%     84.19% # Type of FU issued
system.cpu.iq.FU_type_0::MemWrite                7138     15.81%    100.00% # Type of FU issued
system.cpu.iq.FU_type_0::FloatMemRead               0      0.00%    100.00% # Type of FU issued
system.cpu.iq.FU_type_0::FloatMemWrite              0      0.00%    100.00% # Type of FU issued
system.cpu.iq.FU_type_0::IprAccess                  0      0.00%    100.00% # Type of FU issued
system.cpu.iq.FU_type_0::InstPrefetch               0      0.00%    100.00% # Type of FU issued
system.cpu.iq.FU_type_0::total                  45151                       # Type of FU issued
system.cpu.iq.fp_alu_accesses                       0                       # Number of floating point alu accesses
system.cpu.iq.fp_inst_queue_reads                   0                       # Number of floating instruction queue reads
system.cpu.iq.fp_inst_queue_wakeup_accesses            0                       # Number of floating instruction queue wakeup accesses
system.cpu.iq.fp_inst_queue_writes                  0                       # Number of floating instruction queue writes
system.cpu.iq.fu_busy_cnt                         553                       # FU busy when requested
system.cpu.iq.fu_busy_rate                   0.012248                       # FU busy rate (busy events/executed inst)
system.cpu.iq.fu_full::No_OpClass                   0      0.00%      0.00% # attempts to use FU when none available
system.cpu.iq.fu_full::IntAlu                     121     21.88%     21.88% # attempts to use FU when none available
system.cpu.iq.fu_full::IntMult                      0      0.00%     21.88% # attempts to use FU when none available
system.cpu.iq.fu_full::IntDiv                       0      0.00%     21.88% # attempts to use FU when none available
system.cpu.iq.fu_full::FloatAdd                     0      0.00%     21.88% # attempts to use FU when none available
system.cpu.iq.fu_full::FloatCmp                     0      0.00%     21.88% # attempts to use FU when none available
system.cpu.iq.fu_full::FloatCvt                     0      0.00%     21.88% # attempts to use FU when none available
system.cpu.iq.fu_full::FloatMult                    0      0.00%     21.88% # attempts to use FU when none available
system.cpu.iq.fu_full::FloatMultAcc                 0      0.00%     21.88% # attempts to use FU when none available
system.cpu.iq.fu_full::FloatDiv                     0      0.00%     21.88% # attempts to use FU when none available
system.cpu.iq.fu_full::FloatMisc                    0      0.00%     21.88% # attempts to use FU when none available
system.cpu.iq.fu_full::FloatSqrt                    0      0.00%     21.88% # attempts to use FU when none available
system.cpu.iq.fu_full::SimdAdd                      0      0.00%     21.88% # attempts to use FU when none available
system.cpu.iq.fu_full::SimdAddAcc                   0      0.00%     21.88% # attempts to use FU when none available
system.cpu.iq.fu_full::SimdAlu                      2      0.36%     22.24% # attempts to use FU when none available
system.cpu.iq.fu_full::SimdCmp                      2      0.36%     22.60% # attempts to use FU when none available
system.cpu.iq.fu_full::SimdCvt                      0      0.00%     22.60% # attempts to use FU when none available
system.cpu.iq.fu_full::SimdMisc                     0      0.00%     22.60% # attempts to use FU when none available
system.cpu.iq.fu_full::SimdMult                     0      0.00%     22.60% # attempts to use FU when none available
system.cpu.iq.fu_full::SimdMultAcc                  0      0.00%     22.60% # attempts to use FU when none available
system.cpu.iq.fu_full::SimdShift                    0      0.00%     22.60% # attempts to use FU when none available
system.cpu.iq.fu_full::SimdShiftAcc                 0      0.00%     22.60% # attempts to use FU when none available
system.cpu.iq.fu_full::SimdDiv                      0      0.00%     22.60% # attempts to use FU when none available
system.cpu.iq.fu_full::SimdSqrt                     0      0.00%     22.60% # attempts to use FU when none available
system.cpu.iq.fu_full::SimdFloatAdd                 0      0.00%     22.60% # attempts to use FU when none available
system.cpu.iq.fu_full::SimdFloatAlu                 0      0.00%     22.60% # attempts to use FU when none available
system.cpu.iq.fu_full::SimdFloatCmp                 0      0.00%     22.60% # attempts to use FU when none available
system.cpu.iq.fu_full::SimdFloatCvt                 0      0.00%     22.60% # attempts to use FU when none available
system.cpu.iq.fu_full::SimdFloatDiv                 0      0.00%     22.60% # attempts to use FU when none available
system.cpu.iq.fu_full::SimdFloatMisc                0      0.00%     22.60% # attempts to use FU when none available
system.cpu.iq.fu_full::SimdFloatMult                0      0.00%     22.60% # attempts to use FU when none available
system.cpu.iq.fu_full::SimdFloatMultAcc             0      0.00%     22.60% # attempts to use FU when none available
system.cpu.iq.fu_full::SimdFloatSqrt                0      0.00%     22.60% # attempts to use FU when none available
system.cpu.iq.fu_full::SimdReduceAdd                0      0.00%     22.60% # attempts to use FU when none available
system.cpu.iq.fu_full::SimdReduceAlu                0      0.00%     22.60% # attempts to use FU when none available
system.cpu.iq.fu_full::SimdReduceCmp                0      0.00%     22.60% # attempts to use FU when none available
system.cpu.iq.fu_full::SimdFloatReduceAdd            0      0.00%     22.60% # attempts to use FU when none available
system.cpu.iq.fu_full::SimdFloatReduceCmp            0      0.00%     22.60% # attempts to use FU when none available
system.cpu.iq.fu_full::SimdAes                      0      0.00%     22.60% # attempts to use FU when none available
system.cpu.iq.fu_full::SimdAesMix                   0      0.00%     22.60% # attempts to use FU when none available
system.cpu.iq.fu_full::SimdSha1Hash                 0      0.00%     22.60% # attempts to use FU when none available
system.cpu.iq.fu_full::SimdSha1Hash2                0      0.00%     22.60% # attempts to use FU when none available
system.cpu.iq.fu_full::SimdSha256Hash               0      0.00%     22.60% # attempts to use FU when none available
system.cpu.iq.fu_full::SimdSha256Hash2              0      0.00%     22.60% # attempts to use FU when none available
system.cpu.iq.fu_full::SimdShaSigma2                0      0.00%     22.60% # attempts to use FU when none available
system.cpu.iq.fu_full::SimdShaSigma3                0      0.00%     22.60% # attempts to use FU when none available
system.cpu.iq.fu_full::SimdPredAlu                  0      0.00%     22.60% # attempts to use FU when none available
system.cpu.iq.fu_full::MemRead                    160     28.93%     51.54% # attempts to use FU when none available
system.cpu.iq.fu_full::MemWrite                   268     48.46%    100.00% # attempts to use FU when none available
system.cpu.iq.fu_full::FloatMemRead                 0      0.00%    100.00% # attempts to use FU when none available
system.cpu.iq.fu_full::FloatMemWrite                0      0.00%    100.00% # attempts to use FU when none available
system.cpu.iq.fu_full::IprAccess                    0      0.00%    100.00% # attempts to use FU when none available
system.cpu.iq.fu_full::InstPrefetch                 0      0.00%    100.00% # attempts to use FU when none available
system.cpu.iq.int_alu_accesses                  44830                       # Number of integer alu accesses
system.cpu.iq.int_inst_queue_reads             169375                       # Number of integer instruction queue reads
system.cpu.iq.int_inst_queue_wakeup_accesses        42017                       # Number of integer instruction queue wakeup accesses
system.cpu.iq.int_inst_queue_writes             58746                       # Number of integer instruction queue writes
system.cpu.iq.iqInstsAdded                      48058                       # Number of instructions added to the IQ (excludes non-spec)
system.cpu.iq.iqInstsIssued                     45151                       # Number of instructions issued
system.cpu.iq.iqNonSpecInstsAdded                  72                       # Number of non-speculative instructions added to the IQ
system.cpu.iq.iqSquashedInstsExamined           12280                       # Number of squashed instructions iterated over during squash; mainly for profiling
system.cpu.iq.iqSquashedInstsIssued               250                       # Number of squashed instructions issued
system.cpu.iq.iqSquashedNonSpecRemoved             24                       # Number of squashed non-spec instructions that were removed
system.cpu.iq.iqSquashedOperandsExamined         8607                       # Number of squashed operands that are examined and possibly removed from graph
system.cpu.iq.issued_per_cycle::samples         80124                       # Number of insts issued each cycle
system.cpu.iq.issued_per_cycle::mean         0.563514                       # Number of insts issued each cycle
system.cpu.iq.issued_per_cycle::stdev        1.336180                       # Number of insts issued each cycle
system.cpu.iq.issued_per_cycle::underflows            0      0.00%      0.00% # Number of insts issued each cycle
system.cpu.iq.issued_per_cycle::0               63179     78.85%     78.85% # Number of insts issued each cycle
system.cpu.iq.issued_per_cycle::1                5597      6.99%     85.84% # Number of insts issued each cycle
system.cpu.iq.issued_per_cycle::2                3755      4.69%     90.52% # Number of insts issued each cycle
system.cpu.iq.issued_per_cycle::3                2850      3.56%     94.08% # Number of insts issued each cycle
system.cpu.iq.issued_per_cycle::4                2178      2.72%     96.80% # Number of insts issued each cycle
system.cpu.iq.issued_per_cycle::5                1283      1.60%     98.40% # Number of insts issued each cycle
system.cpu.iq.issued_per_cycle::6                 795      0.99%     99.39% # Number of insts issued each cycle
system.cpu.iq.issued_per_cycle::7                 299      0.37%     99.77% # Number of insts issued each cycle
system.cpu.iq.issued_per_cycle::8                 188      0.23%    100.00% # Number of insts issued each cycle
system.cpu.iq.issued_per_cycle::overflows            0      0.00%    100.00% # Number of insts issued each cycle
system.cpu.iq.issued_per_cycle::min_value            0                       # Number of insts issued each cycle
system.cpu.iq.issued_per_cycle::max_value            8                       # Number of insts issued each cycle
system.cpu.iq.issued_per_cycle::total           80124                       # Number of insts issued each cycle
system.cpu.iq.rate                           0.276744                       # Inst issue rate
system.cpu.iq.vec_alu_accesses                    865                       # Number of vector alu accesses
system.cpu.iq.vec_inst_queue_reads               1854                       # Number of vector instruction queue reads
system.cpu.iq.vec_inst_queue_wakeup_accesses          647                       # Number of vector instruction queue wakeup accesses
system.cpu.iq.vec_inst_queue_writes              1683                       # Number of vector instruction queue writes
system.cpu.itb.accesses                             0                       # DTB accesses
system.cpu.itb.align_faults                         0                       # Number of TLB faults due to alignment restrictions
system.cpu.itb.domain_faults                        0                       # Number of TLB faults due to domain restrictions
system.cpu.itb.flush_entries                        0                       # Number of entries that have been flushed from TLB
system.cpu.itb.flush_tlb                            0                       # Number of times complete TLB was flushed
system.cpu.itb.flush_tlb_asid                       0                       # Number of times TLB was flushed by ASID
system.cpu.itb.flush_tlb_mva                        0                       # Number of times TLB was flushed by MVA
system.cpu.itb.flush_tlb_mva_asid                   0                       # Number of times TLB was flushed by MVA & ASID
system.cpu.itb.hits                                 0                       # DTB hits
system.cpu.itb.inst_accesses                        0                       # ITB inst accesses
system.cpu.itb.inst_hits                            0                       # ITB inst hits
system.cpu.itb.inst_misses                          0                       # ITB inst misses
system.cpu.itb.misses                               0                       # DTB misses
system.cpu.itb.perms_faults                         0                       # Number of TLB faults due to permissions restrictions
system.cpu.itb.prefetch_faults                      0                       # Number of TLB faults due to prefetch
system.cpu.itb.read_accesses                        0                       # DTB read accesses
system.cpu.itb.read_hits                            0                       # DTB read hits
system.cpu.itb.read_misses                          0                       # DTB read misses
system.cpu.itb.stage2_mmu.stage2_tlb.accesses            0                       # DTB accesses
system.cpu.itb.stage2_mmu.stage2_tlb.align_faults            0                       # Number of TLB faults due to alignment restrictions
system.cpu.itb.stage2_mmu.stage2_tlb.domain_faults            0                       # Number of TLB faults due to domain restrictions
system.cpu.itb.stage2_mmu.stage2_tlb.flush_entries            0                       # Number of entries that have been flushed from TLB
system.cpu.itb.stage2_mmu.stage2_tlb.flush_tlb            0                       # Number of times complete TLB was flushed
system.cpu.itb.stage2_mmu.stage2_tlb.flush_tlb_asid            0                       # Number of times TLB was flushed by ASID
system.cpu.itb.stage2_mmu.stage2_tlb.flush_tlb_mva            0                       # Number of times TLB was flushed by MVA
system.cpu.itb.stage2_mmu.stage2_tlb.flush_tlb_mva_asid            0                       # Number of times TLB was flushed by MVA & ASID
system.cpu.itb.stage2_mmu.stage2_tlb.hits            0                       # DTB hits
system.cpu.itb.stage2_mmu.stage2_tlb.inst_accesses            0                       # ITB inst accesses
system.cpu.itb.stage2_mmu.stage2_tlb.inst_hits            0                       # ITB inst hits
system.cpu.itb.stage2_mmu.stage2_tlb.inst_misses            0                       # ITB inst misses
system.cpu.itb.stage2_mmu.stage2_tlb.misses            0                       # DTB misses
system.cpu.itb.stage2_mmu.stage2_tlb.perms_faults            0                       # Number of TLB faults due to permissions restrictions
system.cpu.itb.stage2_mmu.stage2_tlb.prefetch_faults            0                       # Number of TLB faults due to prefetch
system.cpu.itb.stage2_mmu.stage2_tlb.read_accesses            0                       # DTB read accesses
system.cpu.itb.stage2_mmu.stage2_tlb.read_hits            0                       # DTB read hits
system.cpu.itb.stage2_mmu.stage2_tlb.read_misses            0                       # DTB read misses
system.cpu.itb.stage2_mmu.stage2_tlb.walker.walkRequestOrigin_Requested::Data            0                       # Table walker requests started/completed, data/inst
system.cpu.itb.stage2_mmu.stage2_tlb.walker.walkRequestOrigin_Requested::Inst            0                       # Table walker requests started/completed, data/inst
system.cpu.itb.stage2_mmu.stage2_tlb.walker.walkRequestOrigin_Requested::total            0                       # Table walker requests started/completed, data/inst
system.cpu.itb.stage2_mmu.stage2_tlb.walker.walkRequestOrigin_Completed::Data            0                       # Table walker requests started/completed, data/inst
system.cpu.itb.stage2_mmu.stage2_tlb.walker.walkRequestOrigin_Completed::Inst            0                       # Table walker requests started/completed, data/inst
system.cpu.itb.stage2_mmu.stage2_tlb.walker.walkRequestOrigin_Completed::total            0                       # Table walker requests started/completed, data/inst
system.cpu.itb.stage2_mmu.stage2_tlb.walker.walkRequestOrigin::total            0                       # Table walker requests started/completed, data/inst
system.cpu.itb.stage2_mmu.stage2_tlb.walker.walks            0                       # Table walker walks requested
system.cpu.itb.stage2_mmu.stage2_tlb.write_accesses            0                       # DTB write accesses
system.cpu.itb.stage2_mmu.stage2_tlb.write_hits            0                       # DTB write hits
system.cpu.itb.stage2_mmu.stage2_tlb.write_misses            0                       # DTB write misses
system.cpu.itb.walker.walkRequestOrigin_Requested::Data            0                       # Table walker requests started/completed, data/inst
system.cpu.itb.walker.walkRequestOrigin_Requested::Inst            0                       # Table walker requests started/completed, data/inst
system.cpu.itb.walker.walkRequestOrigin_Requested::total            0                       # Table walker requests started/completed, data/inst
system.cpu.itb.walker.walkRequestOrigin_Completed::Data            0                       # Table walker requests started/completed, data/inst
system.cpu.itb.walker.walkRequestOrigin_Completed::Inst            0                       # Table walker requests started/completed, data/inst
system.cpu.itb.walker.walkRequestOrigin_Completed::total            0                       # Table walker requests started/completed, data/inst
system.cpu.itb.walker.walkRequestOrigin::total            0                       # Table walker requests started/completed, data/inst
system.cpu.itb.walker.walks                         0                       # Table walker walks requested
system.cpu.itb.write_accesses                       0                       # DTB write accesses
system.cpu.itb.write_hits                           0                       # DTB write hits
system.cpu.itb.write_misses                         0                       # DTB write misses
system.cpu.memDep0.conflictingLoads                 9                       # Number of conflicting loads.
system.cpu.memDep0.conflictingStores               77                       # Number of conflicting stores.
system.cpu.memDep0.insertedLoads                 7549                       # Number of loads inserted to the mem dependence unit.
system.cpu.memDep0.insertedStores                7800                       # Number of stores inserted to the mem dependence unit.
system.cpu.misc_regfile_reads                   33986                       # number of misc regfile reads
system.cpu.misc_regfile_writes                     97                       # number of misc regfile writes
system.cpu.numCycles                           163151                       # number of cpu cycles simulated
system.cpu.numWorkItemsCompleted                    0                       # number of work items this cpu completed
system.cpu.numWorkItemsStarted                      0                       # number of work items this cpu started
system.cpu.rename.BlockCycles                    2822                       # Number of cycles rename is blocking
system.cpu.rename.CommittedMaps                 33835                       # Number of HB maps that are committed
system.cpu.rename.IQFullEvents                    222                       # Number of times rename has blocked due to IQ full
system.cpu.rename.IdleCycles                    59693                       # Number of cycles rename is idle
system.cpu.rename.LQFullEvents                      2                       # Number of times rename has blocked due to LQ full
system.cpu.rename.ROBFullEvents                     8                       # Number of times rename has blocked due to ROB full
system.cpu.rename.RenameLookups                 73464                       # Number of register rename lookups that rename has made
system.cpu.rename.RenamedInsts                  50183                       # Number of instructions processed by rename
system.cpu.rename.RenamedOperands               47181                       # Number of destination operands rename has renamed
system.cpu.rename.RunCycles                      8975                       # Number of cycles rename is running
system.cpu.rename.SQFullEvents                   1235                       # Number of times rename has blocked due to SQ full
system.cpu.rename.SquashCycles                   1075                       # Number of cycles rename is squashing
system.cpu.rename.UnblockCycles                  1776                       # Number of cycles rename is unblocking
system.cpu.rename.UndoneMaps                    13346                       # Number of HB maps that are undone due to squashing
system.cpu.rename.int_rename_lookups            56100                       # Number of integer rename lookups
system.cpu.rename.serializeStallCycles           5783                       # count of cycles rename stalled for serializing inst
system.cpu.rename.serializingInsts                257                       # count of serializing insts renamed
system.cpu.rename.skidInsts                      2816                       # count of insts added to the skid buffer
system.cpu.rename.tempSerializingInsts             72                       # count of temporary serializing insts renamed
system.cpu.rename.vec_rename_lookups             1188                       # Number of vector rename lookups
system.cpu.rob.rob_reads                       125006                       # The number of ROB reads
system.cpu.rob.rob_writes                       98834                       # The number of ROB writes
system.cpu.timesIdled                            2173                       # Number of times that the entire CPU went into an idle state and unscheduled itself
system.cpu.vec_regfile_reads                      700                       # number of vector regfile reads
system.cpu.vec_regfile_writes                     172                       # number of vector regfile writes
system.cpu.workload.numSyscalls                    23                       # Number of system calls
system.membus.snoop_filter.hit_multi_requests            0                       # Number of requests hitting in the snoop filter with multiple (>1) holders of the requested data.
system.membus.snoop_filter.hit_multi_snoops            0                       # Number of snoops hitting in the snoop filter with multiple (>1) holders of the requested data.
system.membus.snoop_filter.hit_single_requests            0                       # Number of requests hitting in the snoop filter with a single holder of the requested data.
system.membus.snoop_filter.hit_single_snoops            0                       # Number of snoops hitting in the snoop filter with a single holder of the requested data.
system.membus.snoop_filter.tot_requests          1292                       # Total number of requests made to the snoop filter.
system.membus.snoop_filter.tot_snoops               0                       # Total number of snoops made to the snoop filter.
system.tol2bus.snoop_filter.hit_multi_requests            3                       # Number of requests hitting in the snoop filter with multiple (>1) holders of the requested data.
system.tol2bus.snoop_filter.hit_multi_snoops            0                       # Number of snoops hitting in the snoop filter with multiple (>1) holders of the requested data.
system.tol2bus.snoop_filter.hit_single_requests         3156                       # Number of requests hitting in the snoop filter with a single holder of the requested data.
system.tol2bus.snoop_filter.hit_single_snoops            0                       # Number of snoops hitting in the snoop filter with a single holder of the requested data.
system.tol2bus.snoop_filter.tot_requests         6740                       # Total number of requests made to the snoop filter.
system.tol2bus.snoop_filter.tot_snoops              0                       # Total number of snoops made to the snoop filter.
system.membus.trans_dist::ReadResp               1050                       # Transaction distribution
system.membus.trans_dist::ReadExReq               178                       # Transaction distribution
system.membus.trans_dist::ReadExResp              178                       # Transaction distribution
system.membus.trans_dist::ReadSharedReq          1051                       # Transaction distribution
system.membus.trans_dist::InvalidateReq            63                       # Transaction distribution
system.membus.pkt_count_system.l2.mem_side::system.mem_ctrls.port         2520                       # Packet count per connected master and slave (bytes)
system.membus.pkt_count::total                   2520                       # Packet count per connected master and slave (bytes)
system.membus.pkt_size_system.l2.mem_side::system.mem_ctrls.port        78592                       # Cumulative packet size per connected master and slave (bytes)
system.membus.pkt_size::total                   78592                       # Cumulative packet size per connected master and slave (bytes)
system.membus.snoops                                0                       # Total snoops (count)
system.membus.snoopTraffic                          0                       # Total snoop traffic (bytes)
system.membus.snoop_fanout::samples              1292                       # Request fanout histogram
system.membus.snoop_fanout::mean                    0                       # Request fanout histogram
system.membus.snoop_fanout::stdev                   0                       # Request fanout histogram
system.membus.snoop_fanout::underflows              0      0.00%      0.00% # Request fanout histogram
system.membus.snoop_fanout::0                    1292    100.00%    100.00% # Request fanout histogram
system.membus.snoop_fanout::1                       0      0.00%    100.00% # Request fanout histogram
system.membus.snoop_fanout::overflows               0      0.00%    100.00% # Request fanout histogram
system.membus.snoop_fanout::min_value               0                       # Request fanout histogram
system.membus.snoop_fanout::max_value               0                       # Request fanout histogram
system.membus.snoop_fanout::total                1292                       # Request fanout histogram
system.membus.reqLayer0.occupancy             1602500                       # Layer occupancy (ticks)
system.membus.reqLayer0.utilization               2.0                       # Layer utilization (%)
system.membus.respLayer1.occupancy            6519000                       # Layer occupancy (ticks)
system.membus.respLayer1.utilization              8.0                       # Layer utilization (%)
system.membus.power_state.pwrStateResidencyTicks::UNDEFINED     81575000                       # Cumulative time (in ticks) in various power states
system.tol2bus.trans_dist::ReadResp              3339                       # Transaction distribution
system.tol2bus.trans_dist::WritebackDirty            5                       # Transaction distribution
system.tol2bus.trans_dist::WritebackClean         3142                       # Transaction distribution
system.tol2bus.trans_dist::CleanEvict               9                       # Transaction distribution
system.tol2bus.trans_dist::ReadExReq              180                       # Transaction distribution
system.tol2bus.trans_dist::ReadExResp             180                       # Transaction distribution
system.tol2bus.trans_dist::ReadCleanReq          3160                       # Transaction distribution
system.tol2bus.trans_dist::ReadSharedReq          181                       # Transaction distribution
system.tol2bus.trans_dist::InvalidateReq           63                       # Transaction distribution
system.tol2bus.trans_dist::InvalidateResp           63                       # Transaction distribution
system.tol2bus.pkt_count_system.cpu.icache.mem_side::system.l2.cpu_side         9460                       # Packet count per connected master and slave (bytes)
system.tol2bus.pkt_count_system.cpu.dcache.mem_side::system.l2.cpu_side          862                       # Packet count per connected master and slave (bytes)
system.tol2bus.pkt_count::total                 10322                       # Packet count per connected master and slave (bytes)
system.tol2bus.pkt_size_system.cpu.icache.mem_side::system.l2.cpu_side       403200                       # Cumulative packet size per connected master and slave (bytes)
system.tol2bus.pkt_size_system.cpu.dcache.mem_side::system.l2.cpu_side        23424                       # Cumulative packet size per connected master and slave (bytes)
system.tol2bus.pkt_size::total                 426624                       # Cumulative packet size per connected master and slave (bytes)
system.tol2bus.snoops                               0                       # Total snoops (count)
system.tol2bus.snoopTraffic                         0                       # Total snoop traffic (bytes)
system.tol2bus.snoop_fanout::samples             3584                       # Request fanout histogram
system.tol2bus.snoop_fanout::mean            0.000837                       # Request fanout histogram
system.tol2bus.snoop_fanout::stdev           0.028924                       # Request fanout histogram
system.tol2bus.snoop_fanout::underflows             0      0.00%      0.00% # Request fanout histogram
system.tol2bus.snoop_fanout::0                   3581     99.92%     99.92% # Request fanout histogram
system.tol2bus.snoop_fanout::1                      3      0.08%    100.00% # Request fanout histogram
system.tol2bus.snoop_fanout::2                      0      0.00%    100.00% # Request fanout histogram
system.tol2bus.snoop_fanout::overflows              0      0.00%    100.00% # Request fanout histogram
system.tol2bus.snoop_fanout::min_value              0                       # Request fanout histogram
system.tol2bus.snoop_fanout::max_value              1                       # Request fanout histogram
system.tol2bus.snoop_fanout::total               3584                       # Request fanout histogram
system.tol2bus.reqLayer0.occupancy            6517000                       # Layer occupancy (ticks)
system.tol2bus.reqLayer0.utilization              8.0                       # Layer utilization (%)
system.tol2bus.respLayer1.occupancy            573499                       # Layer occupancy (ticks)
system.tol2bus.respLayer1.utilization             0.7                       # Layer utilization (%)
system.tol2bus.respLayer0.occupancy           4737000                       # Layer occupancy (ticks)
system.tol2bus.respLayer0.utilization             5.8                       # Layer utilization (%)
system.tol2bus.power_state.pwrStateResidencyTicks::UNDEFINED     81575000                       # Cumulative time (in ticks) in various power states
system.voltage_domain.voltage                       1                       # Voltage in Volts
system.clk_domain.clock                          1000                       # Clock period in ticks
system.l2.demand_hits::.cpu.inst                 2286                       # number of demand (read+write) hits
system.l2.demand_hits::.cpu.data                    5                       # number of demand (read+write) hits
system.l2.demand_hits::total                     2291                       # number of demand (read+write) hits
system.l2.overall_hits::.cpu.inst                2286                       # number of overall hits
system.l2.overall_hits::.cpu.data                   5                       # number of overall hits
system.l2.overall_hits::total                    2291                       # number of overall hits
system.l2.demand_misses::.cpu.inst                874                       # number of demand (read+write) misses
system.l2.demand_misses::.cpu.data                356                       # number of demand (read+write) misses
system.l2.demand_misses::total                   1230                       # number of demand (read+write) misses
system.l2.overall_misses::.cpu.inst               874                       # number of overall misses
system.l2.overall_misses::.cpu.data               356                       # number of overall misses
system.l2.overall_misses::total                  1230                       # number of overall misses
system.l2.demand_miss_latency::.cpu.inst     67547500                       # number of demand (read+write) miss cycles
system.l2.demand_miss_latency::.cpu.data     30182500                       # number of demand (read+write) miss cycles
system.l2.demand_miss_latency::total         97730000                       # number of demand (read+write) miss cycles
system.l2.overall_miss_latency::.cpu.inst     67547500                       # number of overall miss cycles
system.l2.overall_miss_latency::.cpu.data     30182500                       # number of overall miss cycles
system.l2.overall_miss_latency::total        97730000                       # number of overall miss cycles
system.l2.demand_accesses::.cpu.inst             3160                       # number of demand (read+write) accesses
system.l2.demand_accesses::.cpu.data              361                       # number of demand (read+write) accesses
system.l2.demand_accesses::total                 3521                       # number of demand (read+write) accesses
system.l2.overall_accesses::.cpu.inst            3160                       # number of overall (read+write) accesses
system.l2.overall_accesses::.cpu.data             361                       # number of overall (read+write) accesses
system.l2.overall_accesses::total                3521                       # number of overall (read+write) accesses
system.l2.demand_miss_rate::.cpu.inst        0.276582                       # miss rate for demand accesses
system.l2.demand_miss_rate::.cpu.data        0.986150                       # miss rate for demand accesses
system.l2.demand_miss_rate::total            0.349333                       # miss rate for demand accesses
system.l2.overall_miss_rate::.cpu.inst       0.276582                       # miss rate for overall accesses
system.l2.overall_miss_rate::.cpu.data       0.986150                       # miss rate for overall accesses
system.l2.overall_miss_rate::total           0.349333                       # miss rate for overall accesses
system.l2.demand_avg_miss_latency::.cpu.inst 77285.469108                       # average overall miss latency
system.l2.demand_avg_miss_latency::.cpu.data 84782.303371                       # average overall miss latency
system.l2.demand_avg_miss_latency::total 79455.284553                       # average overall miss latency
system.l2.overall_avg_miss_latency::.cpu.inst 77285.469108                       # average overall miss latency
system.l2.overall_avg_miss_latency::.cpu.data 84782.303371                       # average overall miss latency
system.l2.overall_avg_miss_latency::total 79455.284553                       # average overall miss latency
system.l2.blocked_cycles::no_mshrs                  0                       # number of cycles access was blocked
system.l2.blocked_cycles::no_targets                0                       # number of cycles access was blocked
system.l2.blocked::no_mshrs                         0                       # number of cycles access was blocked
system.l2.blocked::no_targets                       0                       # number of cycles access was blocked
system.l2.avg_blocked_cycles::no_mshrs            nan                       # average number of cycles each access was blocked
system.l2.avg_blocked_cycles::no_targets          nan                       # average number of cycles each access was blocked
system.l2.demand_mshr_misses::.cpu.inst           874                       # number of demand (read+write) MSHR misses
system.l2.demand_mshr_misses::.cpu.data           356                       # number of demand (read+write) MSHR misses
system.l2.demand_mshr_misses::total              1230                       # number of demand (read+write) MSHR misses
system.l2.overall_mshr_misses::.cpu.inst          874                       # number of overall MSHR misses
system.l2.overall_mshr_misses::.cpu.data          356                       # number of overall MSHR misses
system.l2.overall_mshr_misses::total             1230                       # number of overall MSHR misses
system.l2.demand_mshr_miss_latency::.cpu.inst     58827500                       # number of demand (read+write) MSHR miss cycles
system.l2.demand_mshr_miss_latency::.cpu.data     26622500                       # number of demand (read+write) MSHR miss cycles
system.l2.demand_mshr_miss_latency::total     85450000                       # number of demand (read+write) MSHR miss cycles
system.l2.overall_mshr_miss_latency::.cpu.inst     58827500                       # number of overall MSHR miss cycles
system.l2.overall_mshr_miss_latency::.cpu.data     26622500                       # number of overall MSHR miss cycles
system.l2.overall_mshr_miss_latency::total     85450000                       # number of overall MSHR miss cycles
system.l2.demand_mshr_miss_rate::.cpu.inst     0.276582                       # mshr miss rate for demand accesses
system.l2.demand_mshr_miss_rate::.cpu.data     0.986150                       # mshr miss rate for demand accesses
system.l2.demand_mshr_miss_rate::total       0.349333                       # mshr miss rate for demand accesses
system.l2.overall_mshr_miss_rate::.cpu.inst     0.276582                       # mshr miss rate for overall accesses
system.l2.overall_mshr_miss_rate::.cpu.data     0.986150                       # mshr miss rate for overall accesses
system.l2.overall_mshr_miss_rate::total      0.349333                       # mshr miss rate for overall accesses
system.l2.demand_avg_mshr_miss_latency::.cpu.inst 67308.352403                       # average overall mshr miss latency
system.l2.demand_avg_mshr_miss_latency::.cpu.data 74782.303371                       # average overall mshr miss latency
system.l2.demand_avg_mshr_miss_latency::total 69471.544715                       # average overall mshr miss latency
system.l2.overall_avg_mshr_miss_latency::.cpu.inst 67308.352403                       # average overall mshr miss latency
system.l2.overall_avg_mshr_miss_latency::.cpu.data 74782.303371                       # average overall mshr miss latency
system.l2.overall_avg_mshr_miss_latency::total 69471.544715                       # average overall mshr miss latency
system.l2.replacements                              0                       # number of replacements
system.l2.WritebackDirty_hits::.writebacks            5                       # number of WritebackDirty hits
system.l2.WritebackDirty_hits::total                5                       # number of WritebackDirty hits
system.l2.WritebackDirty_accesses::.writebacks            5                       # number of WritebackDirty accesses(hits+misses)
system.l2.WritebackDirty_accesses::total            5                       # number of WritebackDirty accesses(hits+misses)
system.l2.WritebackClean_hits::.writebacks         3139                       # number of WritebackClean hits
system.l2.WritebackClean_hits::total             3139                       # number of WritebackClean hits
system.l2.WritebackClean_accesses::.writebacks         3139                       # number of WritebackClean accesses(hits+misses)
system.l2.WritebackClean_accesses::total         3139                       # number of WritebackClean accesses(hits+misses)
system.l2.ReadExReq_hits::.cpu.data                 2                       # number of ReadExReq hits
system.l2.ReadExReq_hits::total                     2                       # number of ReadExReq hits
system.l2.ReadExReq_misses::.cpu.data             178                       # number of ReadExReq misses
system.l2.ReadExReq_misses::total                 178                       # number of ReadExReq misses
system.l2.ReadExReq_miss_latency::.cpu.data     14885000                       # number of ReadExReq miss cycles
system.l2.ReadExReq_miss_latency::total      14885000                       # number of ReadExReq miss cycles
system.l2.ReadExReq_accesses::.cpu.data           180                       # number of ReadExReq accesses(hits+misses)
system.l2.ReadExReq_accesses::total               180                       # number of ReadExReq accesses(hits+misses)
system.l2.ReadExReq_miss_rate::.cpu.data     0.988889                       # miss rate for ReadExReq accesses
system.l2.ReadExReq_miss_rate::total         0.988889                       # miss rate for ReadExReq accesses
system.l2.ReadExReq_avg_miss_latency::.cpu.data 83623.595506                       # average ReadExReq miss latency
system.l2.ReadExReq_avg_miss_latency::total 83623.595506                       # average ReadExReq miss latency
system.l2.ReadExReq_mshr_misses::.cpu.data          178                       # number of ReadExReq MSHR misses
system.l2.ReadExReq_mshr_misses::total            178                       # number of ReadExReq MSHR misses
system.l2.ReadExReq_mshr_miss_latency::.cpu.data     13105000                       # number of ReadExReq MSHR miss cycles
system.l2.ReadExReq_mshr_miss_latency::total     13105000                       # number of ReadExReq MSHR miss cycles
system.l2.ReadExReq_mshr_miss_rate::.cpu.data     0.988889                       # mshr miss rate for ReadExReq accesses
system.l2.ReadExReq_mshr_miss_rate::total     0.988889                       # mshr miss rate for ReadExReq accesses
system.l2.ReadExReq_avg_mshr_miss_latency::.cpu.data 73623.595506                       # average ReadExReq mshr miss latency
system.l2.ReadExReq_avg_mshr_miss_latency::total 73623.595506                       # average ReadExReq mshr miss latency
system.l2.ReadCleanReq_hits::.cpu.inst           2286                       # number of ReadCleanReq hits
system.l2.ReadCleanReq_hits::total               2286                       # number of ReadCleanReq hits
system.l2.ReadCleanReq_misses::.cpu.inst          874                       # number of ReadCleanReq misses
system.l2.ReadCleanReq_misses::total              874                       # number of ReadCleanReq misses
system.l2.ReadCleanReq_miss_latency::.cpu.inst     67547500                       # number of ReadCleanReq miss cycles
system.l2.ReadCleanReq_miss_latency::total     67547500                       # number of ReadCleanReq miss cycles
system.l2.ReadCleanReq_accesses::.cpu.inst         3160                       # number of ReadCleanReq accesses(hits+misses)
system.l2.ReadCleanReq_accesses::total           3160                       # number of ReadCleanReq accesses(hits+misses)
system.l2.ReadCleanReq_miss_rate::.cpu.inst     0.276582                       # miss rate for ReadCleanReq accesses
system.l2.ReadCleanReq_miss_rate::total      0.276582                       # miss rate for ReadCleanReq accesses
system.l2.ReadCleanReq_avg_miss_latency::.cpu.inst 77285.469108                       # average ReadCleanReq miss latency
system.l2.ReadCleanReq_avg_miss_latency::total 77285.469108                       # average ReadCleanReq miss latency
system.l2.ReadCleanReq_mshr_misses::.cpu.inst          874                       # number of ReadCleanReq MSHR misses
system.l2.ReadCleanReq_mshr_misses::total          874                       # number of ReadCleanReq MSHR misses
system.l2.ReadCleanReq_mshr_miss_latency::.cpu.inst     58827500                       # number of ReadCleanReq MSHR miss cycles
system.l2.ReadCleanReq_mshr_miss_latency::total     58827500                       # number of ReadCleanReq MSHR miss cycles
system.l2.ReadCleanReq_mshr_miss_rate::.cpu.inst     0.276582                       # mshr miss rate for ReadCleanReq accesses
system.l2.ReadCleanReq_mshr_miss_rate::total     0.276582                       # mshr miss rate for ReadCleanReq accesses
system.l2.ReadCleanReq_avg_mshr_miss_latency::.cpu.inst 67308.352403                       # average ReadCleanReq mshr miss latency
system.l2.ReadCleanReq_avg_mshr_miss_latency::total 67308.352403                       # average ReadCleanReq mshr miss latency
[...]
system.cpu.dcache.overall_misses::total          1398                       # number of overall misses
system.cpu.dcache.demand_miss_latency::.cpu.data     98076923                       # number of demand (read+write) miss cycles
system.cpu.dcache.demand_miss_latency::total     98076923                       # number of demand (read+write) miss cycles
system.cpu.dcache.overall_miss_latency::.cpu.data     98076923                       # number of overall miss cycles
system.cpu.dcache.overall_miss_latency::total     98076923                       # number of overall miss cycles
system.cpu.dcache.demand_accesses::.cpu.data        12981                       # number of demand (read+write) accesses
system.cpu.dcache.demand_accesses::total        12981                       # number of demand (read+write) accesses
system.cpu.dcache.overall_accesses::.cpu.data        13009                       # number of overall (read+write) accesses
system.cpu.dcache.overall_accesses::total        13009                       # number of overall (read+write) accesses
system.cpu.dcache.demand_miss_rate::.cpu.data     0.107311                       # miss rate for demand accesses
system.cpu.dcache.demand_miss_rate::total     0.107311                       # miss rate for demand accesses
system.cpu.dcache.overall_miss_rate::.cpu.data     0.107464                       # miss rate for overall accesses
system.cpu.dcache.overall_miss_rate::total     0.107464                       # miss rate for overall accesses
system.cpu.dcache.demand_avg_miss_latency::.cpu.data 70406.979899                       # average overall miss latency
system.cpu.dcache.demand_avg_miss_latency::total 70406.979899                       # average overall miss latency
system.cpu.dcache.overall_avg_miss_latency::.cpu.data 70155.166667                       # average overall miss latency
system.cpu.dcache.overall_avg_miss_latency::total 70155.166667                       # average overall miss latency
system.cpu.dcache.blocked_cycles::no_mshrs         3722                       # number of cycles access was blocked
system.cpu.dcache.blocked_cycles::no_targets            0                       # number of cycles access was blocked
system.cpu.dcache.blocked::no_mshrs               106                       # number of cycles access was blocked
system.cpu.dcache.blocked::no_targets               0                       # number of cycles access was blocked
system.cpu.dcache.avg_blocked_cycles::no_mshrs    35.113208                       # average number of cycles each access was blocked
system.cpu.dcache.avg_blocked_cycles::no_targets          nan                       # average number of cycles each access was blocked
system.cpu.dcache.writebacks::.writebacks            5                       # number of writebacks
system.cpu.dcache.writebacks::total                 5                       # number of writebacks
system.cpu.dcache.demand_mshr_hits::.cpu.data          975                       # number of demand (read+write) MSHR hits
system.cpu.dcache.demand_mshr_hits::total          975                       # number of demand (read+write) MSHR hits
system.cpu.dcache.overall_mshr_hits::.cpu.data          975                       # number of overall MSHR hits
system.cpu.dcache.overall_mshr_hits::total          975                       # number of overall MSHR hits
system.cpu.dcache.demand_mshr_misses::.cpu.data          418                       # number of demand (read+write) MSHR misses
system.cpu.dcache.demand_mshr_misses::total          418                       # number of demand (read+write) MSHR misses
system.cpu.dcache.overall_mshr_misses::.cpu.data          423                       # number of overall MSHR misses
system.cpu.dcache.overall_mshr_misses::total          423                       # number of overall MSHR misses
system.cpu.dcache.demand_mshr_miss_latency::.cpu.data     32195958                       # number of demand (read+write) MSHR miss cycles
system.cpu.dcache.demand_mshr_miss_latency::total     32195958                       # number of demand (read+write) MSHR miss cycles
system.cpu.dcache.overall_mshr_miss_latency::.cpu.data     32655958                       # number of overall MSHR miss cycles
system.cpu.dcache.overall_mshr_miss_latency::total     32655958                       # number of overall MSHR miss cycles
system.cpu.dcache.demand_mshr_miss_rate::.cpu.data     0.032201                       # mshr miss rate for demand accesses
system.cpu.dcache.demand_mshr_miss_rate::total     0.032201                       # mshr miss rate for demand accesses
system.cpu.dcache.overall_mshr_miss_rate::.cpu.data     0.032516                       # mshr miss rate for overall accesses
system.cpu.dcache.overall_mshr_miss_rate::total     0.032516                       # mshr miss rate for overall accesses
system.cpu.dcache.demand_avg_mshr_miss_latency::.cpu.data 77023.822967                       # average overall mshr miss latency
system.cpu.dcache.demand_avg_mshr_miss_latency::total 77023.822967                       # average overall mshr miss latency
system.cpu.dcache.overall_avg_mshr_miss_latency::.cpu.data 77200.846336                       # average overall mshr miss latency
system.cpu.dcache.overall_avg_mshr_miss_latency::total 77200.846336                       # average overall mshr miss latency
system.cpu.dcache.replacements                     14                       # number of replacements
system.cpu.dcache.ReadReq_hits::.cpu.data         6469                       # number of ReadReq hits
system.cpu.dcache.ReadReq_hits::total            6469                       # number of ReadReq hits
system.cpu.dcache.ReadReq_misses::.cpu.data          429                       # number of ReadReq misses
system.cpu.dcache.ReadReq_misses::total           429                       # number of ReadReq misses
system.cpu.dcache.ReadReq_miss_latency::.cpu.data     31804000                       # number of ReadReq miss cycles
system.cpu.dcache.ReadReq_miss_latency::total     31804000                       # number of ReadReq miss cycles
system.cpu.dcache.ReadReq_accesses::.cpu.data         6898                       # number of ReadReq accesses(hits+misses)
system.cpu.dcache.ReadReq_accesses::total         6898                       # number of ReadReq accesses(hits+misses)
system.cpu.dcache.ReadReq_miss_rate::.cpu.data     0.062192                       # miss rate for ReadReq accesses
system.cpu.dcache.ReadReq_miss_rate::total     0.062192                       # miss rate for ReadReq accesses
system.cpu.dcache.ReadReq_avg_miss_latency::.cpu.data 74135.198135                       # average ReadReq miss latency
system.cpu.dcache.ReadReq_avg_miss_latency::total 74135.198135                       # average ReadReq miss latency
system.cpu.dcache.ReadReq_mshr_hits::.cpu.data          254                       # number of ReadReq MSHR hits
system.cpu.dcache.ReadReq_mshr_hits::total          254                       # number of ReadReq MSHR hits
system.cpu.dcache.ReadReq_mshr_misses::.cpu.data          175                       # number of ReadReq MSHR misses
system.cpu.dcache.ReadReq_mshr_misses::total          175                       # number of ReadReq MSHR misses
system.cpu.dcache.ReadReq_mshr_miss_latency::.cpu.data     15067500                       # number of ReadReq MSHR miss cycles
system.cpu.dcache.ReadReq_mshr_miss_latency::total     15067500                       # number of ReadReq MSHR miss cycles
system.cpu.dcache.ReadReq_mshr_miss_rate::.cpu.data     0.025370                       # mshr miss rate for ReadReq accesses
system.cpu.dcache.ReadReq_mshr_miss_rate::total     0.025370                       # mshr miss rate for ReadReq accesses
system.cpu.dcache.ReadReq_avg_mshr_miss_latency::.cpu.data        86100                       # average ReadReq mshr miss latency
system.cpu.dcache.ReadReq_avg_mshr_miss_latency::total        86100                       # average ReadReq mshr miss latency
system.cpu.dcache.WriteReq_hits::.cpu.data         5119                       # number of WriteReq hits
system.cpu.dcache.WriteReq_hits::total           5119                       # number of WriteReq hits
system.cpu.dcache.WriteReq_misses::.cpu.data          904                       # number of WriteReq misses
system.cpu.dcache.WriteReq_misses::total          904                       # number of WriteReq misses
system.cpu.dcache.WriteReq_miss_latency::.cpu.data     64360457                       # number of WriteReq miss cycles
system.cpu.dcache.WriteReq_miss_latency::total     64360457                       # number of WriteReq miss cycles
system.cpu.dcache.WriteReq_accesses::.cpu.data         6023                       # number of WriteReq accesses(hits+misses)
system.cpu.dcache.WriteReq_accesses::total         6023                       # number of WriteReq accesses(hits+misses)
system.cpu.dcache.WriteReq_miss_rate::.cpu.data     0.150091                       # miss rate for WriteReq accesses
system.cpu.dcache.WriteReq_miss_rate::total     0.150091                       # miss rate for WriteReq accesses
system.cpu.dcache.WriteReq_avg_miss_latency::.cpu.data 71195.195796                       # average WriteReq miss latency
system.cpu.dcache.WriteReq_avg_miss_latency::total 71195.195796                       # average WriteReq miss latency
system.cpu.dcache.WriteReq_mshr_hits::.cpu.data          721                       # number of WriteReq MSHR hits
system.cpu.dcache.WriteReq_mshr_hits::total          721                       # number of WriteReq MSHR hits
system.cpu.dcache.WriteReq_mshr_misses::.cpu.data          183                       # number of WriteReq MSHR misses
system.cpu.dcache.WriteReq_mshr_misses::total          183                       # number of WriteReq MSHR misses
system.cpu.dcache.WriteReq_mshr_miss_latency::.cpu.data     15275992                       # number of WriteReq MSHR miss cycles
system.cpu.dcache.WriteReq_mshr_miss_latency::total     15275992                       # number of WriteReq MSHR miss cycles
system.cpu.dcache.WriteReq_mshr_miss_rate::.cpu.data     0.030384                       # mshr miss rate for WriteReq accesses
system.cpu.dcache.WriteReq_mshr_miss_rate::total     0.030384                       # mshr miss rate for WriteReq accesses
system.cpu.dcache.WriteReq_avg_mshr_miss_latency::.cpu.data 83475.366120                       # average WriteReq mshr miss latency
system.cpu.dcache.WriteReq_avg_mshr_miss_latency::total 83475.366120                       # average WriteReq mshr miss latency
system.cpu.dcache.SoftPFReq_hits::.cpu.data           23                       # number of SoftPFReq hits
system.cpu.dcache.SoftPFReq_hits::total            23                       # number of SoftPFReq hits
system.cpu.dcache.SoftPFReq_misses::.cpu.data            5                       # number of SoftPFReq misses
system.cpu.dcache.SoftPFReq_misses::total            5                       # number of SoftPFReq misses
system.cpu.dcache.SoftPFReq_accesses::.cpu.data           28                       # number of SoftPFReq accesses(hits+misses)
system.cpu.dcache.SoftPFReq_accesses::total           28                       # number of SoftPFReq accesses(hits+misses)
system.cpu.dcache.SoftPFReq_miss_rate::.cpu.data     0.178571                       # miss rate for SoftPFReq accesses
system.cpu.dcache.SoftPFReq_miss_rate::total     0.178571                       # miss rate for SoftPFReq accesses
system.cpu.dcache.SoftPFReq_mshr_misses::.cpu.data            5                       # number of SoftPFReq MSHR misses
system.cpu.dcache.SoftPFReq_mshr_misses::total            5                       # number of SoftPFReq MSHR misses
system.cpu.dcache.SoftPFReq_mshr_miss_latency::.cpu.data       460000                       # number of SoftPFReq MSHR miss cycles
system.cpu.dcache.SoftPFReq_mshr_miss_latency::total       460000                       # number of SoftPFReq MSHR miss cycles
system.cpu.dcache.SoftPFReq_mshr_miss_rate::.cpu.data     0.178571                       # mshr miss rate for SoftPFReq accesses
system.cpu.dcache.SoftPFReq_mshr_miss_rate::total     0.178571                       # mshr miss rate for SoftPFReq accesses
system.cpu.dcache.SoftPFReq_avg_mshr_miss_latency::.cpu.data        92000                       # average SoftPFReq mshr miss latency
system.cpu.dcache.SoftPFReq_avg_mshr_miss_latency::total        92000                       # average SoftPFReq mshr miss latency
system.cpu.dcache.WriteLineReq_misses::.cpu.data           60                       # number of WriteLineReq misses
system.cpu.dcache.WriteLineReq_misses::total           60                       # number of WriteLineReq misses
system.cpu.dcache.WriteLineReq_miss_latency::.cpu.data      1912466                       # number of WriteLineReq miss cycles
system.cpu.dcache.WriteLineReq_miss_latency::total      1912466                       # number of WriteLineReq miss cycles
system.cpu.dcache.WriteLineReq_accesses::.cpu.data           60                       # number of WriteLineReq accesses(hits+misses)
system.cpu.dcache.WriteLineReq_accesses::total           60                       # number of WriteLineReq accesses(hits+misses)
system.cpu.dcache.WriteLineReq_miss_rate::.cpu.data            1                       # miss rate for WriteLineReq accesses
system.cpu.dcache.WriteLineReq_miss_rate::total            1                       # miss rate for WriteLineReq accesses
system.cpu.dcache.WriteLineReq_avg_miss_latency::.cpu.data 31874.433333                       # average WriteLineReq miss latency
system.cpu.dcache.WriteLineReq_avg_miss_latency::total 31874.433333                       # average WriteLineReq miss latency
system.cpu.dcache.WriteLineReq_mshr_misses::.cpu.data           60                       # number of WriteLineReq MSHR misses
system.cpu.dcache.WriteLineReq_mshr_misses::total           60                       # number of WriteLineReq MSHR misses
system.cpu.dcache.WriteLineReq_mshr_miss_latency::.cpu.data      1852466                       # number of WriteLineReq MSHR miss cycles
system.cpu.dcache.WriteLineReq_mshr_miss_latency::total      1852466                       # number of WriteLineReq MSHR miss cycles
system.cpu.dcache.WriteLineReq_mshr_miss_rate::.cpu.data            1                       # mshr miss rate for WriteLineReq accesses
system.cpu.dcache.WriteLineReq_mshr_miss_rate::total            1                       # mshr miss rate for WriteLineReq accesses
system.cpu.dcache.WriteLineReq_avg_mshr_miss_latency::.cpu.data 30874.433333                       # average WriteLineReq mshr miss latency
system.cpu.dcache.WriteLineReq_avg_mshr_miss_latency::total 30874.433333                       # average WriteLineReq mshr miss latency
system.cpu.dcache.LoadLockedReq_hits::.cpu.data           35                       # number of LoadLockedReq hits
system.cpu.dcache.LoadLockedReq_hits::total           35                       # number of LoadLockedReq hits
system.cpu.dcache.LoadLockedReq_misses::.cpu.data            1                       # number of LoadLockedReq misses
system.cpu.dcache.LoadLockedReq_misses::total            1                       # number of LoadLockedReq misses
system.cpu.dcache.LoadLockedReq_miss_latency::.cpu.data        79500                       # number of LoadLockedReq miss cycles
system.cpu.dcache.LoadLockedReq_miss_latency::total        79500                       # number of LoadLockedReq miss cycles
system.cpu.dcache.LoadLockedReq_accesses::.cpu.data           36                       # number of LoadLockedReq accesses(hits+misses)
system.cpu.dcache.LoadLockedReq_accesses::total           36                       # number of LoadLockedReq accesses(hits+misses)
system.cpu.dcache.LoadLockedReq_miss_rate::.cpu.data     0.027778                       # miss rate for LoadLockedReq accesses
system.cpu.dcache.LoadLockedReq_miss_rate::total     0.027778                       # miss rate for LoadLockedReq accesses
system.cpu.dcache.LoadLockedReq_avg_miss_latency::.cpu.data        79500                       # average LoadLockedReq miss latency
system.cpu.dcache.LoadLockedReq_avg_miss_latency::total        79500                       # average LoadLockedReq miss latency
system.cpu.dcache.LoadLockedReq_mshr_misses::.cpu.data            1                       # number of LoadLockedReq MSHR misses
system.cpu.dcache.LoadLockedReq_mshr_misses::total            1                       # number of LoadLockedReq MSHR misses
system.cpu.dcache.LoadLockedReq_mshr_miss_latency::.cpu.data        78500                       # number of LoadLockedReq MSHR miss cycles
system.cpu.dcache.LoadLockedReq_mshr_miss_latency::total        78500                       # number of LoadLockedReq MSHR miss cycles
system.cpu.dcache.LoadLockedReq_mshr_miss_rate::.cpu.data     0.027778                       # mshr miss rate for LoadLockedReq accesses
system.cpu.dcache.LoadLockedReq_mshr_miss_rate::total     0.027778                       # mshr miss rate for LoadLockedReq accesses
system.cpu.dcache.LoadLockedReq_avg_mshr_miss_latency::.cpu.data        78500                       # average LoadLockedReq mshr miss latency
system.cpu.dcache.LoadLockedReq_avg_mshr_miss_latency::total        78500                       # average LoadLockedReq mshr miss latency
system.cpu.dcache.StoreCondReq_hits::.cpu.data           24                       # number of StoreCondReq hits
system.cpu.dcache.StoreCondReq_hits::total           24                       # number of StoreCondReq hits
system.cpu.dcache.StoreCondReq_accesses::.cpu.data           24                       # number of StoreCondReq accesses(hits+misses)
system.cpu.dcache.StoreCondReq_accesses::total           24                       # number of StoreCondReq accesses(hits+misses)
system.cpu.dcache.power_state.pwrStateResidencyTicks::UNDEFINED     81575000                       # Cumulative time (in ticks) in various power states
system.cpu.dcache.tags.tagsinuse           264.635111                       # Cycle average of tags in use
system.cpu.dcache.tags.total_refs               12094                       # Total number of references to valid blocks.
system.cpu.dcache.tags.sampled_refs               424                       # Sample count of references to valid blocks.
system.cpu.dcache.tags.avg_refs             28.523585                       # Average number of references to valid blocks.
system.cpu.dcache.tags.warmup_cycle            176500                       # Cycle when the warmup percentage was hit.
system.cpu.dcache.tags.occ_blocks::.cpu.data   264.635111                       # Average occupied blocks per requestor
system.cpu.dcache.tags.occ_percent::.cpu.data     0.258433                       # Average percentage of cache occupancy
system.cpu.dcache.tags.occ_percent::total     0.258433                       # Average percentage of cache occupancy
system.cpu.dcache.tags.occ_task_id_blocks::1024          410                       # Occupied blocks per task id
system.cpu.dcache.tags.age_task_id_blocks_1024::0           21                       # Occupied blocks per task id
system.cpu.dcache.tags.age_task_id_blocks_1024::1          389                       # Occupied blocks per task id
system.cpu.dcache.tags.occ_task_id_percent::1024     0.400391                       # Percentage of cache occupancy per task id
system.cpu.dcache.tags.tag_accesses             26562                       # Number of tag accesses
system.cpu.dcache.tags.data_accesses            26562                       # Number of data accesses
system.cpu.dcache.tags.power_state.pwrStateResidencyTicks::UNDEFINED     81575000                       # Cumulative time (in ticks) in various power states
system.cpu.power_state.pwrStateResidencyTicks::ON     81575000                       # Cumulative time (in ticks) in various power states

---------- End Simulation Statistics   ----------
