
---------- Begin Simulation Statistics ----------
final_tick                                  981802500                       # Number of ticks from beginning of simulation (restored from checkpoints and never reset)
host_inst_rate                                 113880                       # Simulator instruction rate (inst/s)
host_mem_usage                                 865628                       # Number of bytes of host memory used
host_op_rate                                   114669                       # Simulator op (including micro ops) rate (op/s)
host_seconds                                     8.78                       # Real time elapsed on the host
host_tick_rate                              111805182                       # Simulator tick rate (ticks/s)
sim_freq                                 1000000000000                       # Frequency of simulated ticks
sim_insts                                     1000001                       # Number of instructions simulated
sim_ops                                       1006944                       # Number of ops (including micro ops) simulated
sim_seconds                                  0.000982                       # Number of seconds simulated
sim_ticks                                   981802500                       # Number of ticks simulated
system.cpu.branchPred.BTBCorrect                    0                       # Number of correct BTB predictions (this stat may not work properly.
system.cpu.branchPred.BTBHitPct             99.628794                       # BTB Hit Percentage
system.cpu.branchPred.BTBHits                  200489                       # Number of BTB hits
system.cpu.branchPred.BTBLookups               201236                       # Number of BTB lookups
system.cpu.branchPred.RASInCorrect                  0                       # Number of incorrect RAS predictions.
system.cpu.branchPred.condIncorrect               902                       # Number of conditional branches incorrect
system.cpu.branchPred.condPredicted            202428                       # Number of conditional branches predicted
system.cpu.branchPred.indirectHits                  1                       # Number of indirect target hits.
system.cpu.branchPred.indirectLookups             161                       # Number of indirect predictor lookups.
system.cpu.branchPred.indirectMisses              160                       # Number of indirect misses.
system.cpu.branchPred.lookups                  208097                       # Number of BP lookups
system.cpu.branchPred.usedRAS                    2358                       # Number of times the RAS was used to get a target.
system.cpu.branchPredindirectMispredicted           43                       # Number of mispredicted indirect branches.
system.cpu.cc_regfile_reads                    763698                       # number of cc regfile reads
system.cpu.cc_regfile_writes                   764220                       # number of cc regfile writes
system.cpu.commit.amos                              0                       # Number of atomic instructions committed
system.cpu.commit.branchMispredicts               705                       # The number of times a branch was mispredicted
system.cpu.commit.branches                     134686                       # Number of branches committed
system.cpu.commit.bw_lim_events                 48885                       # number cycles where commit BW limit reached
system.cpu.commit.commitNonSpecStalls              31                       # The number of times commit has been forced to stall to communicate backwards
system.cpu.commit.commitSquashedInsts          202421                       # The number of squashed insts skipped by commit
system.cpu.commit.committedInsts              1000027                       # Number of instructions committed
system.cpu.commit.committedOps                1006970                       # Number of ops (including micro ops) committed
system.cpu.commit.committed_per_cycle::samples      1904236                       # Number of insts commited each cycle
system.cpu.commit.committed_per_cycle::mean     0.528805                       # Number of insts commited each cycle
system.cpu.commit.committed_per_cycle::stdev     1.578609                       # Number of insts commited each cycle
system.cpu.commit.committed_per_cycle::underflows            0      0.00%      0.00% # Number of insts commited each cycle
system.cpu.commit.committed_per_cycle::0      1624764     85.32%     85.32% # Number of insts commited each cycle
system.cpu.commit.committed_per_cycle::1        86172      4.53%     89.85% # Number of insts commited each cycle
system.cpu.commit.committed_per_cycle::2        12723      0.67%     90.52% # Number of insts commited each cycle
system.cpu.commit.committed_per_cycle::3        49495      2.60%     93.12% # Number of insts commited each cycle
system.cpu.commit.committed_per_cycle::4        58424      3.07%     96.18% # Number of insts commited each cycle
system.cpu.commit.committed_per_cycle::5        21599      1.13%     97.32% # Number of insts commited each cycle
system.cpu.commit.committed_per_cycle::6         1122      0.06%     97.38% # Number of insts commited each cycle
system.cpu.commit.committed_per_cycle::7         1052      0.06%     97.43% # Number of insts commited each cycle
system.cpu.commit.committed_per_cycle::8        48885      2.57%    100.00% # Number of insts commited each cycle
system.cpu.commit.committed_per_cycle::overflows            0      0.00%    100.00% # Number of insts commited each cycle
system.cpu.commit.committed_per_cycle::min_value            0                       # Number of insts commited each cycle
system.cpu.commit.committed_per_cycle::max_value            8                       # Number of insts commited each cycle
system.cpu.commit.committed_per_cycle::total      1904236                       # Number of insts commited each cycle
system.cpu.commit.fp_insts                          0                       # Number of committed floating point instructions.
system.cpu.commit.function_calls                 2158                       # Number of function calls committed.
system.cpu.commit.int_insts                    879162                       # Number of committed integer instructions.
system.cpu.commit.loads                        161698                       # Number of loads committed
system.cpu.commit.membars                          20                       # Number of memory barriers committed
system.cpu.commit.op_class_0::No_OpClass            5      0.00%      0.00% # Class of committed instruction
system.cpu.commit.op_class_0::IntAlu           625681     62.14%     62.14% # Class of committed instruction
system.cpu.commit.op_class_0::IntMult             633      0.06%     62.20% # Class of committed instruction
system.cpu.commit.op_class_0::IntDiv                2      0.00%     62.20% # Class of committed instruction
system.cpu.commit.op_class_0::FloatAdd              0      0.00%     62.20% # Class of committed instruction
system.cpu.commit.op_class_0::FloatCmp              0      0.00%     62.20% # Class of committed instruction
system.cpu.commit.op_class_0::FloatCvt              0      0.00%     62.20% # Class of committed instruction
system.cpu.commit.op_class_0::FloatMult             0      0.00%     62.20% # Class of committed instruction
system.cpu.commit.op_class_0::FloatMultAcc            0      0.00%     62.20% # Class of committed instruction
system.cpu.commit.op_class_0::FloatDiv              0      0.00%     62.20% # Class of committed instruction
system.cpu.commit.op_class_0::FloatMisc             1      0.00%     62.20% # Class of committed instruction
system.cpu.commit.op_class_0::FloatSqrt             0      0.00%     62.20% # Class of committed instruction
system.cpu.commit.op_class_0::SimdAdd              20      0.00%     62.20% # Class of committed instruction
system.cpu.commit.op_class_0::SimdAddAcc            0      0.00%     62.20% # Class of committed instruction
system.cpu.commit.op_class_0::SimdAlu              19      0.00%     62.20% # Class of committed instruction
system.cpu.commit.op_class_0::SimdCmp              20      0.00%     62.20% # Class of committed instruction
system.cpu.commit.op_class_0::SimdCvt               0      0.00%     62.20% # Class of committed instruction
system.cpu.commit.op_class_0::SimdMisc             23      0.00%     62.21% # Class of committed instruction
system.cpu.commit.op_class_0::SimdMult              0      0.00%     62.21% # Class of committed instruction
system.cpu.commit.op_class_0::SimdMultAcc            0      0.00%     62.21% # Class of committed instruction
system.cpu.commit.op_class_0::SimdShift             0      0.00%     62.21% # Class of committed instruction
system.cpu.commit.op_class_0::SimdShiftAcc            0      0.00%     62.21% # Class of committed instruction
system.cpu.commit.op_class_0::SimdDiv               0      0.00%     62.21% # Class of committed instruction
system.cpu.commit.op_class_0::SimdSqrt              0      0.00%     62.21% # Class of committed instruction
system.cpu.commit.op_class_0::SimdFloatAdd            0      0.00%     62.21% # Class of committed instruction
system.cpu.commit.op_class_0::SimdFloatAlu            0      0.00%     62.21% # Class of committed instruction
system.cpu.commit.op_class_0::SimdFloatCmp            0      0.00%     62.21% # Class of committed instruction
system.cpu.commit.op_class_0::SimdFloatCvt            0      0.00%     62.21% # Class of committed instruction
system.cpu.commit.op_class_0::SimdFloatDiv            0      0.00%     62.21% # Class of committed instruction
system.cpu.commit.op_class_0::SimdFloatMisc            0      0.00%     62.21% # Class of committed instruction
system.cpu.commit.op_class_0::SimdFloatMult            0      0.00%     62.21% # Class of committed instruction
system.cpu.commit.op_class_0::SimdFloatMultAcc            0      0.00%     62.21% # Class of committed instruction
system.cpu.commit.op_class_0::SimdFloatSqrt            0      0.00%     62.21% # Class of committed instruction
system.cpu.commit.op_class_0::SimdReduceAdd            0      0.00%     62.21% # Class of committed instruction
system.cpu.commit.op_class_0::SimdReduceAlu            0      0.00%     62.21% # Class of committed instruction
system.cpu.commit.op_class_0::SimdReduceCmp            0      0.00%     62.21% # Class of committed instruction
system.cpu.commit.op_class_0::SimdFloatReduceAdd            0      0.00%     62.21% # Class of committed instruction
system.cpu.commit.op_class_0::SimdFloatReduceCmp            0      0.00%     62.21% # Class of committed instruction
system.cpu.commit.op_class_0::SimdAes               0      0.00%     62.21% # Class of committed instruction
system.cpu.commit.op_class_0::SimdAesMix            0      0.00%     62.21% # Class of committed instruction
system.cpu.commit.op_class_0::SimdSha1Hash            0      0.00%     62.21% # Class of committed instruction
system.cpu.commit.op_class_0::SimdSha1Hash2            0      0.00%     62.21% # Class of committed instruction
system.cpu.commit.op_class_0::SimdSha256Hash            0      0.00%     62.21% # Class of committed instruction
system.cpu.commit.op_class_0::SimdSha256Hash2            0      0.00%     62.21% # Class of committed instruction
system.cpu.commit.op_class_0::SimdShaSigma2            0      0.00%     62.21% # Class of committed instruction
system.cpu.commit.op_class_0::SimdShaSigma3            0      0.00%     62.21% # Class of committed instruction
system.cpu.commit.op_class_0::SimdPredAlu            0      0.00%     62.21% # Class of committed instruction
system.cpu.commit.op_class_0::MemRead          161698     16.06%     78.26% # Class of committed instruction
system.cpu.commit.op_class_0::MemWrite         218868     21.74%    100.00% # Class of committed instruction
system.cpu.commit.op_class_0::FloatMemRead            0      0.00%    100.00% # Class of committed instruction
system.cpu.commit.op_class_0::FloatMemWrite            0      0.00%    100.00% # Class of committed instruction
system.cpu.commit.op_class_0::IprAccess             0      0.00%    100.00% # Class of committed instruction
system.cpu.commit.op_class_0::InstPrefetch            0      0.00%    100.00% # Class of committed instruction
system.cpu.commit.op_class_0::total           1006970                       # Class of committed instruction
system.cpu.commit.refs                         380566                       # Number of memory references committed
system.cpu.commit.swp_count                         0                       # Number of s/w prefetches committed
system.cpu.commit.vec_insts                       339                       # Number of committed Vector instructions.
system.cpu.committedInsts                     1000001                       # Number of Instructions Simulated
system.cpu.committedOps                       1006944                       # Number of Ops (including micro ops) Simulated
system.cpu.cpi                               1.963604                       # CPI: Cycles Per Instruction
system.cpu.cpi_total                         1.963604                       # CPI: Total CPI of All Threads
system.cpu.decode.BlockedCycles               1646367                       # Number of cycles decode is blocked
system.cpu.decode.BranchMispred                   202                       # Number of times decode detected a branch misprediction
system.cpu.decode.BranchResolved               185533                       # Number of times decode resolved a branch
system.cpu.decode.DecodedInsts                1245241                       # Number of instructions handled by decode
system.cpu.decode.IdleCycles                    80576                       # Number of cycles decode is idle
system.cpu.decode.RunCycles                    142751                       # Number of cycles decode is running
system.cpu.decode.SquashCycles                   2230                       # Number of cycles decode is squashing
system.cpu.decode.SquashedInsts                   729                       # Number of squashed instructions handled by decode
system.cpu.decode.UnblockCycles                 58020                       # Number of cycles decode is unblocking
system.cpu.dtb.accesses                             0                       # DTB accesses
system.cpu.dtb.align_faults                         0                       # Number of TLB faults due to alignment restrictions
system.cpu.dtb.domain_faults                        0                       # Number of TLB faults due to domain restrictions
system.cpu.dtb.flush_entries                        0                       # Number of entries that have been flushed from TLB
system.cpu.dtb.flush_tlb                            0                       # Number of times complete TLB was flushed
system.cpu.dtb.flush_tlb_asid                       0                       # Number of times TLB was flushed by ASID
system.cpu.dtb.flush_tlb_mva                        0                       # Number of times TLB was flushed by MVA
system.cpu.dtb.flush_tlb_mva_asid                   0                       # Number of times TLB was flushed by MVA & ASID
system.cpu.dtb.hits                                 0                       # DTB hits
system.cpu.dtb.inst_accesses                        0                       # ITB inst accesses
system.cpu.dtb.inst_hits                            0                       # ITB inst hits
system.cpu.dtb.inst_misses                          0                       # ITB inst misses
system.cpu.dtb.misses                               0                       # DTB misses
system.cpu.dtb.perms_faults                         0                       # Number of TLB faults due to permissions restrictions
system.cpu.dtb.prefetch_faults                      0                       # Number of TLB faults due to prefetch
system.cpu.dtb.read_accesses                        0                       # DTB read accesses
system.cpu.dtb.read_hits                            0                       # DTB read hits
system.cpu.dtb.read_misses                          0                       # DTB read misses
system.cpu.dtb.stage2_mmu.stage2_tlb.accesses            0                       # DTB accesses
system.cpu.dtb.stage2_mmu.stage2_tlb.align_faults            0                       # Number of TLB faults due to alignment restrictions
system.cpu.dtb.stage2_mmu.stage2_tlb.domain_faults            0                       # Number of TLB faults due to domain restrictions
system.cpu.dtb.stage2_mmu.stage2_tlb.flush_entries            0                       # Number of entries that have been flushed from TLB
system.cpu.dtb.stage2_mmu.stage2_tlb.flush_tlb            0                       # Number of times complete TLB was flushed
system.cpu.dtb.stage2_mmu.stage2_tlb.flush_tlb_asid            0                       # Number of times TLB was flushed by ASID
system.cpu.dtb.stage2_mmu.stage2_tlb.flush_tlb_mva            0                       # Number of times TLB was flushed by MVA
system.cpu.dtb.stage2_mmu.stage2_tlb.flush_tlb_mva_asid            0                       # Number of times TLB was flushed by MVA & ASID
system.cpu.dtb.stage2_mmu.stage2_tlb.hits            0                       # DTB hits
system.cpu.dtb.stage2_mmu.stage2_tlb.inst_accesses            0                       # ITB inst accesses
system.cpu.dtb.stage2_mmu.stage2_tlb.inst_hits            0                       # ITB inst hits
system.cpu.dtb.stage2_mmu.stage2_tlb.inst_misses            0                       # ITB inst misses
system.cpu.dtb.stage2_mmu.stage2_tlb.misses            0                       # DTB misses
system.cpu.dtb.stage2_mmu.stage2_tlb.perms_faults            0                       # Number of TLB faults due to permissions restrictions
system.cpu.dtb.stage2_mmu.stage2_tlb.prefetch_faults            0                       # Number of TLB faults due to prefetch
system.cpu.dtb.stage2_mmu.stage2_tlb.read_accesses            0                       # DTB read accesses
system.cpu.dtb.stage2_mmu.stage2_tlb.read_hits            0                       # DTB read hits
system.cpu.dtb.stage2_mmu.stage2_tlb.read_misses            0                       # DTB read misses
system.cpu.dtb.stage2_mmu.stage2_tlb.walker.walkRequestOrigin_Requested::Data            0                       # Table walker requests started/completed, data/inst
system.cpu.dtb.stage2_mmu.stage2_tlb.walker.walkRequestOrigin_Requested::Inst            0                       # Table walker requests started/completed, data/inst
system.cpu.dtb.stage2_mmu.stage2_tlb.walker.walkRequestOrigin_Requested::total            0                       # Table walker requests started/completed, data/inst
system.cpu.dtb.stage2_mmu.stage2_tlb.walker.walkRequestOrigin_Completed::Data            0                       # Table walker requests started/completed, data/inst
system.cpu.dtb.stage2_mmu.stage2_tlb.walker.walkRequestOrigin_Completed::Inst            0                       # Table walker requests started/completed, data/inst
system.cpu.dtb.stage2_mmu.stage2_tlb.walker.walkRequestOrigin_Completed::total            0                       # Table walker requests started/completed, data/inst
system.cpu.dtb.stage2_mmu.stage2_tlb.walker.walkRequestOrigin::total            0                       # Table walker requests started/completed, data/inst
system.cpu.dtb.stage2_mmu.stage2_tlb.walker.walks            0                       # Table walker walks requested
system.cpu.dtb.stage2_mmu.stage2_tlb.write_accesses            0                       # DTB write accesses
system.cpu.dtb.stage2_mmu.stage2_tlb.write_hits            0                       # DTB write hits
system.cpu.dtb.stage2_mmu.stage2_tlb.write_misses            0                       # DTB write misses
system.cpu.dtb.walker.walkRequestOrigin_Requested::Data            0                       # Table walker requests started/completed, data/inst
system.cpu.dtb.walker.walkRequestOrigin_Requested::Inst            0                       # Table walker requests started/completed, data/inst
system.cpu.dtb.walker.walkRequestOrigin_Requested::total            0                       # Table walker requests started/completed, data/inst
system.cpu.dtb.walker.walkRequestOrigin_Completed::Data            0                       # Table walker requests started/completed, data/inst
system.cpu.dtb.walker.walkRequestOrigin_Completed::Inst            0                       # Table walker requests started/completed, data/inst
system.cpu.dtb.walker.walkRequestOrigin_Completed::total            0                       # Table walker requests started/completed, data/inst
system.cpu.dtb.walker.walkRequestOrigin::total            0                       # Table walker requests started/completed, data/inst
system.cpu.dtb.walker.walks                         0                       # Table walker walks requested
system.cpu.dtb.write_accesses                       0                       # DTB write accesses
system.cpu.dtb.write_hits                           0                       # DTB write hits
system.cpu.dtb.write_misses                         0                       # DTB write misses
system.cpu.fetch.Branches                      208097                       # Number of branches that fetch encountered
system.cpu.fetch.CacheLines                     65457                       # Number of cache lines fetched
system.cpu.fetch.Cycles                       1852466                       # Number of cycles fetch has run and was not squashing or blocked
system.cpu.fetch.IcacheSquashes                   431                       # Number of outstanding Icache misses that were squashed
system.cpu.fetch.IcacheWaitRetryStallCycles           71                       # Number of stall cycles due to full MSHR
system.cpu.fetch.Insts                        1301942                       # Number of instructions fetch has processed
system.cpu.fetch.MiscStallCycles                    5                       # Number of cycles fetch has spent waiting on interrupts, or bad addresses, or out of MSHRs
system.cpu.fetch.SquashCycles                    4854                       # Number of cycles fetch has spent squashing
system.cpu.fetch.branchRate                  0.105977                       # Number of branch fetches per cycle
system.cpu.fetch.icacheStallCycles              74975                       # Number of cycles fetch is stalled on an Icache miss
system.cpu.fetch.predictedBranches             202848                       # Number of branches that fetch has predicted taken
system.cpu.fetch.rate                        0.663036                       # Number of inst fetches per cycle
system.cpu.fetch.rateDist::samples            1929944                       # Number of instructions fetched each cycle (Total)
system.cpu.fetch.rateDist::mean              0.679170                       # Number of instructions fetched each cycle (Total)
system.cpu.fetch.rateDist::stdev             1.765929                       # Number of instructions fetched each cycle (Total)
system.cpu.fetch.rateDist::underflows               0      0.00%      0.00% # Number of instructions fetched each cycle (Total)
system.cpu.fetch.rateDist::0                  1644032     85.19%     85.19% # Number of instructions fetched each cycle (Total)
system.cpu.fetch.rateDist::1                     3030      0.16%     85.34% # Number of instructions fetched each cycle (Total)
system.cpu.fetch.rateDist::2                    25822      1.34%     86.68% # Number of instructions fetched each cycle (Total)
system.cpu.fetch.rateDist::3                     1090      0.06%     86.74% # Number of instructions fetched each cycle (Total)
system.cpu.fetch.rateDist::4                   190981      9.90%     96.63% # Number of instructions fetched each cycle (Total)
system.cpu.fetch.rateDist::5                     5047      0.26%     96.89% # Number of instructions fetched each cycle (Total)
system.cpu.fetch.rateDist::6                     6325      0.33%     97.22% # Number of instructions fetched each cycle (Total)
system.cpu.fetch.rateDist::7                     3228      0.17%     97.39% # Number of instructions fetched each cycle (Total)
system.cpu.fetch.rateDist::8                    50389      2.61%    100.00% # Number of instructions fetched each cycle (Total)
system.cpu.fetch.rateDist::overflows                0      0.00%    100.00% # Number of instructions fetched each cycle (Total)
system.cpu.fetch.rateDist::min_value                0                       # Number of instructions fetched each cycle (Total)
system.cpu.fetch.rateDist::max_value                8                       # Number of instructions fetched each cycle (Total)
system.cpu.fetch.rateDist::total              1929944                       # Number of instructions fetched each cycle (Total)
system.cpu.icache.prefetcher.num_hwpf_issued          661                       # number of hwpf issued
system.cpu.icache.prefetcher.pfBufferHit           21                       # number of redundant prefetches already in prefetch queue
system.cpu.icache.prefetcher.pfIdentified          709                       # number of prefetch candidates identified
system.cpu.icache.prefetcher.pfInCache              0                       # number of redundant prefetches already in cache/mshr dropped
system.cpu.icache.prefetcher.pfRemovedFull            0                       # number of prefetches dropped due to prefetch queue size
system.cpu.icache.prefetcher.pfSpanPage           176                       # number of prefetches that crossed the page
system.cpu.idleCycles                           33662                       # Total number of cycles that the CPU has spent unscheduled due to idling
system.cpu.iew.branchMispredicts                  778                       # Number of branch mispredicts detected at execute
system.cpu.iew.exec_branches                   184849                       # Number of branches executed
system.cpu.iew.exec_nop                            47                       # number of nop insts executed
system.cpu.iew.exec_rate                     0.617093                       # Inst execution rate
system.cpu.iew.exec_refs                       433027                       # number of memory reference insts executed
system.cpu.iew.exec_stores                     268776                       # Number of stores executed
system.cpu.iew.exec_swp                             0                       # number of swp insts executed
system.cpu.iew.iewBlockCycles                   25047                       # Number of cycles IEW is blocking
system.cpu.iew.iewDispLoadInsts                163610                       # Number of dispatched load instructions
system.cpu.iew.iewDispNonSpecInsts                 44                       # Number of dispatched non-speculative instructions
system.cpu.iew.iewDispSquashedInsts               334                       # Number of squashed instructions skipped by dispatch
system.cpu.iew.iewDispStoreInsts               269769                       # Number of dispatched store instructions
system.cpu.iew.iewDispatchedInsts             1215390                       # Number of instructions dispatched to IQ
system.cpu.iew.iewExecLoadInsts                164251                       # Number of load instructions executed
system.cpu.iew.iewExecSquashedInsts               828                       # Number of squashed instructions skipped in execute
system.cpu.iew.iewExecutedInsts               1211727                       # Number of executed instructions
system.cpu.iew.iewIQFullEvents                     19                       # Number of times the IQ has become full, causing a stall
system.cpu.iew.iewIdleCycles                        0                       # Number of cycles IEW is idle
system.cpu.iew.iewLSQFullEvents                 80969                       # Number of times the LSQ has become full, causing a stall
system.cpu.iew.iewSquashCycles                   2230                       # Number of cycles IEW is squashing
system.cpu.iew.iewUnblockCycles                 81000                       # Number of cycles IEW is unblocking
system.cpu.iew.lsq.thread0.blockedLoads             0                       # Number of blocked loads due to partial load-store forwarding
system.cpu.iew.lsq.thread0.cacheBlocked         79349                       # Number of times an access to memory failed due to the cache being blocked
system.cpu.iew.lsq.thread0.forwLoads             3761                       # Number of loads that had data forwarded from stores
system.cpu.iew.lsq.thread0.ignoredResponses            4                       # Number of memory responses ignored because the instruction is squashed
system.cpu.iew.lsq.thread0.invAddrLoads             0                       # Number of loads ignored due to an invalid address
system.cpu.iew.lsq.thread0.invAddrSwpfs             0                       # Number of software prefetches ignored due to an invalid address
system.cpu.iew.lsq.thread0.memOrderViolation           13                       # Number of memory ordering violations
system.cpu.iew.lsq.thread0.rescheduledLoads           15                       # Number of loads that were rescheduled
system.cpu.iew.lsq.thread0.squashedLoads         1912                       # Number of loads squashed
system.cpu.iew.lsq.thread0.squashedStores        50900                       # Number of stores squashed
system.cpu.iew.memOrderViolationEvents             13                       # Number of memory order violations
system.cpu.iew.predictedNotTakenIncorrect          479                       # Number of branches that were predicted not taken incorrectly
system.cpu.iew.predictedTakenIncorrect            299                       # Number of branches that were predicted taken incorrectly
system.cpu.iew.wb_consumers                   1571697                       # num instructions consuming a value
system.cpu.iew.wb_count                       1162875                       # cumulative count of insts written-back
system.cpu.iew.wb_fanout                     0.418757                       # average fanout of values written-back
system.cpu.iew.wb_producers                    658159                       # num instructions producing a value
system.cpu.iew.wb_rate                       0.592214                       # insts written-back per cycle
system.cpu.iew.wb_sent                        1209693                       # cumulative count of insts sent to commit
system.cpu.int_regfile_reads                  1604568                       # number of integer regfile reads
system.cpu.int_regfile_writes                  758340                       # number of integer regfile writes
system.cpu.ipc                               0.509268                       # IPC: Instructions Per Cycle
system.cpu.ipc_total                         0.509268                       # IPC: Total IPC of All Threads
system.cpu.iq.FU_type_0::No_OpClass                 7      0.00%      0.00% # Type of FU issued
system.cpu.iq.FU_type_0::IntAlu                778400     64.19%     64.20% # Type of FU issued
system.cpu.iq.FU_type_0::IntMult                  635      0.05%     64.25% # Type of FU issued
system.cpu.iq.FU_type_0::IntDiv                     3      0.00%     64.25% # Type of FU issued
system.cpu.iq.FU_type_0::FloatAdd                   0      0.00%     64.25% # Type of FU issued
system.cpu.iq.FU_type_0::FloatCmp                   0      0.00%     64.25% # Type of FU issued
system.cpu.iq.FU_type_0::FloatCvt                   0      0.00%     64.25% # Type of FU issued
system.cpu.iq.FU_type_0::FloatMult                  0      0.00%     64.25% # Type of FU issued
system.cpu.iq.FU_type_0::FloatMultAcc               0      0.00%     64.25% # Type of FU issued
system.cpu.iq.FU_type_0::FloatDiv                   0      0.00%     64.25% # Type of FU issued
system.cpu.iq.FU_type_0::FloatMisc                  1      0.00%     64.25% # Type of FU issued
system.cpu.iq.FU_type_0::FloatSqrt                  0      0.00%     64.25% # Type of FU issued
system.cpu.iq.FU_type_0::SimdAdd                   27      0.00%     64.25% # Type of FU issued
system.cpu.iq.FU_type_0::SimdAddAcc                 0      0.00%     64.25% # Type of FU issued
system.cpu.iq.FU_type_0::SimdAlu                   28      0.00%     64.25% # Type of FU issued
system.cpu.iq.FU_type_0::SimdCmp                   28      0.00%     64.26% # Type of FU issued
system.cpu.iq.FU_type_0::SimdCvt                    0      0.00%     64.26% # Type of FU issued
system.cpu.iq.FU_type_0::SimdMisc                  25      0.00%     64.26% # Type of FU issued
system.cpu.iq.FU_type_0::SimdMult                   0      0.00%     64.26% # Type of FU issued
system.cpu.iq.FU_type_0::SimdMultAcc                0      0.00%     64.26% # Type of FU issued
system.cpu.iq.FU_type_0::SimdShift                  0      0.00%     64.26% # Type of FU issued
system.cpu.iq.FU_type_0::SimdShiftAcc               0      0.00%     64.26% # Type of FU issued
system.cpu.iq.FU_type_0::SimdDiv                    0      0.00%     64.26% # Type of FU issued
system.cpu.iq.FU_type_0::SimdSqrt                   0      0.00%     64.26% # Type of FU issued
system.cpu.iq.FU_type_0::SimdFloatAdd               0      0.00%     64.26% # Type of FU issued
system.cpu.iq.FU_type_0::SimdFloatAlu               0      0.00%     64.26% # Type of FU issued
system.cpu.iq.FU_type_0::SimdFloatCmp               0      0.00%     64.26% # Type of FU issued
system.cpu.iq.FU_type_0::SimdFloatCvt               0      0.00%     64.26% # Type of FU issued
system.cpu.iq.FU_type_0::SimdFloatDiv               0      0.00%     64.26% # Type of FU issued
system.cpu.iq.FU_type_0::SimdFloatMisc              0      0.00%     64.26% # Type of FU issued
system.cpu.iq.FU_type_0::SimdFloatMult              0      0.00%     64.26% # Type of FU issued
system.cpu.iq.FU_type_0::SimdFloatMultAcc            0      0.00%     64.26% # Type of FU issued
system.cpu.iq.FU_type_0::SimdFloatSqrt              0      0.00%     64.26% # Type of FU issued
system.cpu.iq.FU_type_0::SimdReduceAdd              0      0.00%     64.26% # Type of FU issued
system.cpu.iq.FU_type_0::SimdReduceAlu              0      0.00%     64.26% # Type of FU issued
system.cpu.iq.FU_type_0::SimdReduceCmp              0      0.00%     64.26% # Type of FU issued
system.cpu.iq.FU_type_0::SimdFloatReduceAdd            0      0.00%     64.26% # Type of FU issued
system.cpu.iq.FU_type_0::SimdFloatReduceCmp            0      0.00%     64.26% # Type of FU issued
system.cpu.iq.FU_type_0::SimdAes                    0      0.00%     64.26% # Type of FU issued
system.cpu.iq.FU_type_0::SimdAesMix                 0      0.00%     64.26% # Type of FU issued
system.cpu.iq.FU_type_0::SimdSha1Hash               0      0.00%     64.26% # Type of FU issued
system.cpu.iq.FU_type_0::SimdSha1Hash2              0      0.00%     64.26% # Type of FU issued
system.cpu.iq.FU_type_0::SimdSha256Hash             0      0.00%     64.26% # Type of FU issued
system.cpu.iq.FU_type_0::SimdSha256Hash2            0      0.00%     64.26% # Type of FU issued
system.cpu.iq.FU_type_0::SimdShaSigma2              0      0.00%     64.26% # Type of FU issued
system.cpu.iq.FU_type_0::SimdShaSigma3              0      0.00%     64.26% # Type of FU issued
system.cpu.iq.FU_type_0::SimdPredAlu                0      0.00%     64.26% # Type of FU issued
system.cpu.iq.FU_type_0::MemRead               164387     13.56%     77.81% # Type of FU issued
system.cpu.iq.FU_type_0::MemWrite              269015     22.19%    100.00% # Type of FU issued
system.cpu.iq.FU_type_0::FloatMemRead               0      0.00%    100.00% # Type of FU issued
system.cpu.iq.FU_type_0::FloatMemWrite              0      0.00%    100.00% # Type of FU issued
system.cpu.iq.FU_type_0::IprAccess                  0      0.00%    100.00% # Type of FU issued
system.cpu.iq.FU_type_0::InstPrefetch               0      0.00%    100.00% # Type of FU issued
system.cpu.iq.FU_type_0::total                1212556                       # Type of FU issued
system.cpu.iq.fp_alu_accesses                       0                       # Number of floating point alu accesses
system.cpu.iq.fp_inst_queue_reads                   0                       # Number of floating instruction queue reads
system.cpu.iq.fp_inst_queue_wakeup_accesses            0                       # Number of floating instruction queue wakeup accesses
system.cpu.iq.fp_inst_queue_writes                  0                       # Number of floating instruction queue writes
system.cpu.iq.fu_busy_cnt                       23035                       # FU busy when requested
system.cpu.iq.fu_busy_rate                   0.018997                       # FU busy rate (busy events/executed inst)
system.cpu.iq.fu_full::No_OpClass                   0      0.00%      0.00% # attempts to use FU when none available
system.cpu.iq.fu_full::IntAlu                     483      2.10%      2.10% # attempts to use FU when none available
system.cpu.iq.fu_full::IntMult                      0      0.00%      2.10% # attempts to use FU when none available
system.cpu.iq.fu_full::IntDiv                       0      0.00%      2.10% # attempts to use FU when none available
system.cpu.iq.fu_full::FloatAdd                     0      0.00%      2.10% # attempts to use FU when none available
system.cpu.iq.fu_full::FloatCmp                     0      0.00%      2.10% # attempts to use FU when none available
system.cpu.iq.fu_full::FloatCvt                     0      0.00%      2.10% # attempts to use FU when none available
system.cpu.iq.fu_full::FloatMult                    0      0.00%      2.10% # attempts to use FU when none available
system.cpu.iq.fu_full::FloatMultAcc                 0      0.00%      2.10% # attempts to use FU when none available
system.cpu.iq.fu_full::FloatDiv                     0      0.00%      2.10% # attempts to use FU when none available
system.cpu.iq.fu_full::FloatMisc                    0      0.00%      2.10% # attempts to use FU when none available
system.cpu.iq.fu_full::FloatSqrt                    0      0.00%      2.10% # attempts to use FU when none available
system.cpu.iq.fu_full::SimdAdd                      0      0.00%      2.10% # attempts to use FU when none available
system.cpu.iq.fu_full::SimdAddAcc                   0      0.00%      2.10% # attempts to use FU when none available
system.cpu.iq.fu_full::SimdAlu                      2      0.01%      2.11% # attempts to use FU when none available
system.cpu.iq.fu_full::SimdCmp                      3      0.01%      2.12% # attempts to use FU when none available
system.cpu.iq.fu_full::SimdCvt                      0      0.00%      2.12% # attempts to use FU when none available
system.cpu.iq.fu_full::SimdMisc                     0      0.00%      2.12% # attempts to use FU when none available
system.cpu.iq.fu_full::SimdMult                     0      0.00%      2.12% # attempts to use FU when none available
system.cpu.iq.fu_full::SimdMultAcc                  0      0.00%      2.12% # attempts to use FU when none available
system.cpu.iq.fu_full::SimdShift                    0      0.00%      2.12% # attempts to use FU when none available
system.cpu.iq.fu_full::SimdShiftAcc                 0      0.00%      2.12% # attempts to use FU when none available
system.cpu.iq.fu_full::SimdDiv                      0      0.00%      2.12% # attempts to use FU when none available
system.cpu.iq.fu_full::SimdSqrt                     0      0.00%      2.12% # attempts to use FU when none available
system.cpu.iq.fu_full::SimdFloatAdd                 0      0.00%      2.12% # attempts to use FU when none available
system.cpu.iq.fu_full::SimdFloatAlu                 0      0.00%      2.12% # attempts to use FU when none available
system.cpu.iq.fu_full::SimdFloatCmp                 0      0.00%      2.12% # attempts to use FU when none available
system.cpu.iq.fu_full::SimdFloatCvt                 0      0.00%      2.12% # attempts to use FU when none available
system.cpu.iq.fu_full::SimdFloatDiv                 0      0.00%      2.12% # attempts to use FU when none available
system.cpu.iq.fu_full::SimdFloatMisc                0      0.00%      2.12% # attempts to use FU when none available
system.cpu.iq.fu_full::SimdFloatMult                0      0.00%      2.12% # attempts to use FU when none available
system.cpu.iq.fu_full::SimdFloatMultAcc             0      0.00%      2.12% # attempts to use FU when none available
system.cpu.iq.fu_full::SimdFloatSqrt                0      0.00%      2.12% # attempts to use FU when none available
system.cpu.iq.fu_full::SimdReduceAdd                0      0.00%      2.12% # attempts to use FU when none available
system.cpu.iq.fu_full::SimdReduceAlu                0      0.00%      2.12% # attempts to use FU when none available
system.cpu.iq.fu_full::SimdReduceCmp                0      0.00%      2.12% # attempts to use FU when none available
system.cpu.iq.fu_full::SimdFloatReduceAdd            0      0.00%      2.12% # attempts to use FU when none available
system.cpu.iq.fu_full::SimdFloatReduceCmp            0      0.00%      2.12% # attempts to use FU when none available
system.cpu.iq.fu_full::SimdAes                      0      0.00%      2.12% # attempts to use FU when none available
system.cpu.iq.fu_full::SimdAesMix                   0      0.00%      2.12% # attempts to use FU when none available
system.cpu.iq.fu_full::SimdSha1Hash                 0      0.00%      2.12% # attempts to use FU when none available
system.cpu.iq.fu_full::SimdSha1Hash2                0      0.00%      2.12% # attempts to use FU when none available
system.cpu.iq.fu_full::SimdSha256Hash               0      0.00%      2.12% # attempts to use FU when none available
system.cpu.iq.fu_full::SimdSha256Hash2              0      0.00%      2.12% # attempts to use FU when none available
system.cpu.iq.fu_full::SimdShaSigma2                0      0.00%      2.12% # attempts to use FU when none available
system.cpu.iq.fu_full::SimdShaSigma3                0      0.00%      2.12% # attempts to use FU when none available
system.cpu.iq.fu_full::SimdPredAlu                  0      0.00%      2.12% # attempts to use FU when none available
system.cpu.iq.fu_full::MemRead                  21784     94.57%     96.69% # attempts to use FU when none available
system.cpu.iq.fu_full::MemWrite                   763      3.31%    100.00% # attempts to use FU when none available
system.cpu.iq.fu_full::FloatMemRead                 0      0.00%    100.00% # attempts to use FU when none available
system.cpu.iq.fu_full::FloatMemWrite                0      0.00%    100.00% # attempts to use FU when none available
system.cpu.iq.fu_full::IprAccess                    0      0.00%    100.00% # attempts to use FU when none available
system.cpu.iq.fu_full::InstPrefetch                 0      0.00%    100.00% # attempts to use FU when none available
system.cpu.iq.int_alu_accesses                1234966                       # Number of integer alu accesses
system.cpu.iq.int_inst_queue_reads            4376987                       # Number of integer instruction queue reads
system.cpu.iq.int_inst_queue_wakeup_accesses      1162407                       # Number of integer instruction queue wakeup accesses
system.cpu.iq.int_inst_queue_writes           1422577                       # Number of integer instruction queue writes
system.cpu.iq.iqInstsAdded                    1215299                       # Number of instructions added to the IQ (excludes non-spec)
system.cpu.iq.iqInstsIssued                   1212556                       # Number of instructions issued
system.cpu.iq.iqNonSpecInstsAdded                  44                       # Number of non-speculative instructions added to the IQ
system.cpu.iq.iqSquashedInstsExamined          208394                       # Number of squashed instructions iterated over during squash; mainly for profiling
system.cpu.iq.iqSquashedInstsIssued               182                       # Number of squashed instructions issued
system.cpu.iq.iqSquashedNonSpecRemoved             13                       # Number of squashed non-spec instructions that were removed
system.cpu.iq.iqSquashedOperandsExamined       244567                       # Number of squashed operands that are examined and possibly removed from graph
system.cpu.iq.issued_per_cycle::samples       1929944                       # Number of insts issued each cycle
system.cpu.iq.issued_per_cycle::mean         0.628286                       # Number of insts issued each cycle
system.cpu.iq.issued_per_cycle::stdev        1.392543                       # Number of insts issued each cycle
system.cpu.iq.issued_per_cycle::underflows            0      0.00%      0.00% # Number of insts issued each cycle
system.cpu.iq.issued_per_cycle::0             1513280     78.41%     78.41% # Number of insts issued each cycle
system.cpu.iq.issued_per_cycle::1              121993      6.32%     84.73% # Number of insts issued each cycle
system.cpu.iq.issued_per_cycle::2               32693      1.69%     86.43% # Number of insts issued each cycle
system.cpu.iq.issued_per_cycle::3              100980      5.23%     91.66% # Number of insts issued each cycle
system.cpu.iq.issued_per_cycle::4              109656      5.68%     97.34% # Number of insts issued each cycle
system.cpu.iq.issued_per_cycle::5               28118      1.46%     98.80% # Number of insts issued each cycle
system.cpu.iq.issued_per_cycle::6               20250      1.05%     99.85% # Number of insts issued each cycle
system.cpu.iq.issued_per_cycle::7                2269      0.12%     99.96% # Number of insts issued each cycle
system.cpu.iq.issued_per_cycle::8                 705      0.04%    100.00% # Number of insts issued each cycle
system.cpu.iq.issued_per_cycle::overflows            0      0.00%    100.00% # Number of insts issued each cycle
system.cpu.iq.issued_per_cycle::min_value            0                       # Number of insts issued each cycle
system.cpu.iq.issued_per_cycle::max_value            8                       # Number of insts issued each cycle
system.cpu.iq.issued_per_cycle::total         1929944                       # Number of insts issued each cycle
system.cpu.iq.rate                           0.617515                       # Inst issue rate
system.cpu.iq.vec_alu_accesses                    618                       # Number of vector alu accesses
system.cpu.iq.vec_inst_queue_reads               1285                       # Number of vector instruction queue reads
system.cpu.iq.vec_inst_queue_wakeup_accesses          468                       # Number of vector instruction queue wakeup accesses
system.cpu.iq.vec_inst_queue_writes              1173                       # Number of vector instruction queue writes
system.cpu.itb.accesses                             0                       # DTB accesses
system.cpu.itb.align_faults                         0                       # Number of TLB faults due to alignment restrictions
system.cpu.itb.domain_faults                        0                       # Number of TLB faults due to domain restrictions
system.cpu.itb.flush_entries                        0                       # Number of entries that have been flushed from TLB
system.cpu.itb.flush_tlb                            0                       # Number of times complete TLB was flushed
system.cpu.itb.flush_tlb_asid                       0                       # Number of times TLB was flushed by ASID
system.cpu.itb.flush_tlb_mva                        0                       # Number of times TLB was flushed by MVA
system.cpu.itb.flush_tlb_mva_asid                   0                       # Number of times TLB was flushed by MVA & ASID
system.cpu.itb.hits                                 0                       # DTB hits
system.cpu.itb.inst_accesses                        0                       # ITB inst accesses
system.cpu.itb.inst_hits                            0                       # ITB inst hits
system.cpu.itb.inst_misses                          0                       # ITB inst misses
system.cpu.itb.misses                               0                       # DTB misses
system.cpu.itb.perms_faults                         0                       # Number of TLB faults due to permissions restrictions
system.cpu.itb.prefetch_faults                      0                       # Number of TLB faults due to prefetch
system.cpu.itb.read_accesses                        0                       # DTB read accesses
system.cpu.itb.read_hits                            0                       # DTB read hits
system.cpu.itb.read_misses                          0                       # DTB read misses
system.cpu.itb.stage2_mmu.stage2_tlb.accesses            0                       # DTB accesses
system.cpu.itb.stage2_mmu.stage2_tlb.align_faults            0                       # Number of TLB faults due to alignment restrictions
system.cpu.itb.stage2_mmu.stage2_tlb.domain_faults            0                       # Number of TLB faults due to domain restrictions
system.cpu.itb.stage2_mmu.stage2_tlb.flush_entries            0                       # Number of entries that have been flushed from TLB
system.cpu.itb.stage2_mmu.stage2_tlb.flush_tlb            0                       # Number of times complete TLB was flushed
system.cpu.itb.stage2_mmu.stage2_tlb.flush_tlb_asid            0                       # Number of times TLB was flushed by ASID
system.cpu.itb.stage2_mmu.stage2_tlb.flush_tlb_mva            0                       # Number of times TLB was flushed by MVA
system.cpu.itb.stage2_mmu.stage2_tlb.flush_tlb_mva_asid            0                       # Number of times TLB was flushed by MVA & ASID
system.cpu.itb.stage2_mmu.stage2_tlb.hits            0                       # DTB hits
system.cpu.itb.stage2_mmu.stage2_tlb.inst_accesses            0                       # ITB inst accesses
system.cpu.itb.stage2_mmu.stage2_tlb.inst_hits            0                       # ITB inst hits
system.cpu.itb.stage2_mmu.stage2_tlb.inst_misses            0                       # ITB inst misses
system.cpu.itb.stage2_mmu.stage2_tlb.misses            0                       # DTB misses
system.cpu.itb.stage2_mmu.stage2_tlb.perms_faults            0                       # Number of TLB faults due to permissions restrictions
system.cpu.itb.stage2_mmu.stage2_tlb.prefetch_faults            0                       # Number of TLB faults due to prefetch
system.cpu.itb.stage2_mmu.stage2_tlb.read_accesses            0                       # DTB read accesses
system.cpu.itb.stage2_mmu.stage2_tlb.read_hits            0                       # DTB read hits
system.cpu.itb.stage2_mmu.stage2_tlb.read_misses            0                       # DTB read misses
system.cpu.itb.stage2_mmu.stage2_tlb.walker.walkRequestOrigin_Requested::Data            0                       # Table walker requests started/completed, data/inst
system.cpu.itb.stage2_mmu.stage2_tlb.walker.walkRequestOrigin_Requested::Inst            0                       # Table walker requests started/completed, data/inst
system.cpu.itb.stage2_mmu.stage2_tlb.walker.walkRequestOrigin_Requested::total            0                       # Table walker requests started/completed, data/inst
system.cpu.itb.stage2_mmu.stage2_tlb.walker.walkRequestOrigin_Completed::Data            0                       # Table walker requests started/completed, data/inst
system.cpu.itb.stage2_mmu.stage2_tlb.walker.walkRequestOrigin_Completed::Inst            0                       # Table walker requests started/completed, data/inst
system.cpu.itb.stage2_mmu.stage2_tlb.walker.walkRequestOrigin_Completed::total            0                       # Table walker requests started/completed, data/inst
system.cpu.itb.stage2_mmu.stage2_tlb.walker.walkRequestOrigin::total            0                       # Table walker requests started/completed, data/inst
system.cpu.itb.stage2_mmu.stage2_tlb.walker.walks            0                       # Table walker walks requested
system.cpu.itb.stage2_mmu.stage2_tlb.write_accesses            0                       # DTB write accesses
system.cpu.itb.stage2_mmu.stage2_tlb.write_hits            0                       # DTB write hits
system.cpu.itb.stage2_mmu.stage2_tlb.write_misses            0                       # DTB write misses
system.cpu.itb.walker.walkRequestOrigin_Requested::Data            0                       # Table walker requests started/completed, data/inst
system.cpu.itb.walker.walkRequestOrigin_Requested::Inst            0                       # Table walker requests started/completed, data/inst
system.cpu.itb.walker.walkRequestOrigin_Requested::total            0                       # Table walker requests started/completed, data/inst
system.cpu.itb.walker.walkRequestOrigin_Completed::Data            0                       # Table walker requests started/completed, data/inst
system.cpu.itb.walker.walkRequestOrigin_Completed::Inst            0                       # Table walker requests started/completed, data/inst
system.cpu.itb.walker.walkRequestOrigin_Completed::total            0                       # Table walker requests started/completed, data/inst
system.cpu.itb.walker.walkRequestOrigin::total            0                       # Table walker requests started/completed, data/inst
system.cpu.itb.walker.walks                         0                       # Table walker walks requested
system.cpu.itb.write_accesses                       0                       # DTB write accesses
system.cpu.itb.write_hits                           0                       # DTB write hits
system.cpu.itb.write_misses                         0                       # DTB write misses
system.cpu.memDep0.conflictingLoads              2490                       # Number of conflicting loads.
system.cpu.memDep0.conflictingStores             2612                       # Number of conflicting stores.
system.cpu.memDep0.insertedLoads               163610                       # Number of loads inserted to the mem dependence unit.
system.cpu.memDep0.insertedStores              269769                       # Number of stores inserted to the mem dependence unit.
system.cpu.misc_regfile_reads                 1879017                       # number of misc regfile reads
system.cpu.misc_regfile_writes                     81                       # number of misc regfile writes
system.cpu.numCycles                          1963606                       # number of cpu cycles simulated
system.cpu.numWorkItemsCompleted                    0                       # number of work items this cpu completed
system.cpu.numWorkItemsStarted                      0                       # number of work items this cpu started
system.cpu.rename.BlockCycles                  106692                       # Number of cycles rename is blocking
system.cpu.rename.CommittedMaps               1270067                       # Number of HB maps that are committed
system.cpu.rename.IQFullEvents                   8650                       # Number of times rename has blocked due to IQ full
system.cpu.rename.IdleCycles                   102048                       # Number of cycles rename is idle
system.cpu.rename.LQFullEvents                    360                       # Number of times rename has blocked due to LQ full
system.cpu.rename.ROBFullEvents                     3                       # Number of times rename has blocked due to ROB full
system.cpu.rename.RenameLookups               2968182                       # Number of register rename lookups that rename has made
system.cpu.rename.RenamedInsts                1219295                       # Number of instructions processed by rename
system.cpu.rename.RenamedOperands             1533311                       # Number of destination operands rename has renamed
system.cpu.rename.RunCycles                    177738                       # Number of cycles rename is running
system.cpu.rename.SQFullEvents                1525450                       # Number of times rename has blocked due to SQ full
system.cpu.rename.SquashCycles                   2230                       # Number of cycles rename is squashing
system.cpu.rename.UnblockCycles               1536999                       # Number of cycles rename is unblocking
system.cpu.rename.UndoneMaps                   263229                       # Number of HB maps that are undone due to squashing
system.cpu.rename.int_rename_lookups          1615855                       # Number of integer rename lookups
system.cpu.rename.serializeStallCycles           4237                       # count of cycles rename stalled for serializing inst
system.cpu.rename.serializingInsts                105                       # count of serializing insts renamed
system.cpu.rename.skidInsts                    381462                       # count of insts added to the skid buffer
system.cpu.rename.tempSerializingInsts             47                       # count of temporary serializing insts renamed
system.cpu.rename.vec_rename_lookups              861                       # Number of vector rename lookups
system.cpu.rob.rob_reads                      3045034                       # The number of ROB reads
system.cpu.rob.rob_writes                     2444504                       # The number of ROB writes
system.cpu.timesIdled                             343                       # Number of times that the entire CPU went into an idle state and unscheduled itself
system.cpu.vec_regfile_reads                      523                       # number of vector regfile reads
system.cpu.vec_regfile_writes                     126                       # number of vector regfile writes
system.cpu.workload.numSyscalls                    10                       # Number of system calls
system.membus.snoop_filter.hit_multi_requests            0                       # Number of requests hitting in the snoop filter with multiple (>1) holders of the requested data.
system.membus.snoop_filter.hit_multi_snoops            0                       # Number of snoops hitting in the snoop filter with multiple (>1) holders of the requested data.
system.membus.snoop_filter.hit_single_requests        65278                       # Number of requests hitting in the snoop filter with a single holder of the requested data.
system.membus.snoop_filter.hit_single_snoops            0                       # Number of snoops hitting in the snoop filter with a single holder of the requested data.
system.membus.snoop_filter.tot_requests        164459                       # Total number of requests made to the snoop filter.
system.membus.snoop_filter.tot_snoops               0                       # Total number of snoops made to the snoop filter.
system.tol2bus.snoop_filter.hit_multi_requests            1                       # Number of requests hitting in the snoop filter with multiple (>1) holders of the requested data.
system.tol2bus.snoop_filter.hit_multi_snoops            0                       # Number of snoops hitting in the snoop filter with multiple (>1) holders of the requested data.
system.tol2bus.snoop_filter.hit_single_requests        98148                       # Number of requests hitting in the snoop filter with a single holder of the requested data.
system.tol2bus.snoop_filter.hit_single_snoops          128                       # Number of snoops hitting in the snoop filter with a single holder of the requested data.
system.tol2bus.snoop_filter.tot_requests       197453                       # Total number of requests made to the snoop filter.
system.tol2bus.snoop_filter.tot_snoops            128                       # Total number of snoops made to the snoop filter.
system.membus.trans_dist::ReadResp                543                       # Transaction distribution
system.membus.trans_dist::WritebackDirty        64860                       # Transaction distribution
system.membus.trans_dist::CleanEvict              396                       # Transaction distribution
system.membus.trans_dist::ReadExReq              2717                       # Transaction distribution
system.membus.trans_dist::ReadExResp             2717                       # Transaction distribution
system.membus.trans_dist::ReadSharedReq           543                       # Transaction distribution
system.membus.trans_dist::InvalidateReq         95921                       # Transaction distribution
system.membus.pkt_count_system.l2.mem_side::system.mem_ctrls.port       167697                       # Packet count per connected master and slave (bytes)
system.membus.pkt_count::total                 167697                       # Packet count per connected master and slave (bytes)
system.membus.pkt_size_system.l2.mem_side::system.mem_ctrls.port      4359680                       # Cumulative packet size per connected master and slave (bytes)
system.membus.pkt_size::total                 4359680                       # Cumulative packet size per connected master and slave (bytes)
system.membus.snoops                                0                       # Total snoops (count)
system.membus.snoopTraffic                          0                       # Total snoop traffic (bytes)
system.membus.snoop_fanout::samples             99181                       # Request fanout histogram
system.membus.snoop_fanout::mean                    0                       # Request fanout histogram
system.membus.snoop_fanout::stdev                   0                       # Request fanout histogram
system.membus.snoop_fanout::underflows              0      0.00%      0.00% # Request fanout histogram
system.membus.snoop_fanout::0                   99181    100.00%    100.00% # Request fanout histogram
system.membus.snoop_fanout::1                       0      0.00%    100.00% # Request fanout histogram
system.membus.snoop_fanout::overflows               0      0.00%    100.00% # Request fanout histogram
system.membus.snoop_fanout::min_value               0                       # Request fanout histogram
system.membus.snoop_fanout::max_value               0                       # Request fanout histogram
system.membus.snoop_fanout::total               99181                       # Request fanout histogram
system.membus.reqLayer0.occupancy           434407000                       # Layer occupancy (ticks)
system.membus.reqLayer0.utilization              44.2                       # Layer utilization (%)
system.membus.respLayer1.occupancy           17349000                       # Layer occupancy (ticks)
system.membus.respLayer1.utilization              1.8                       # Layer utilization (%)
system.membus.power_state.pwrStateResidencyTicks::UNDEFINED    981802500                       # Cumulative time (in ticks) in various power states
system.tol2bus.trans_dist::ReadResp               645                       # Transaction distribution
system.tol2bus.trans_dist::WritebackDirty       162526                       # Transaction distribution
system.tol2bus.trans_dist::WritebackClean          377                       # Transaction distribution
system.tol2bus.trans_dist::CleanEvict             632                       # Transaction distribution
system.tol2bus.trans_dist::ReadExReq             2735                       # Transaction distribution
system.tol2bus.trans_dist::ReadExResp            2735                       # Transaction distribution
system.tol2bus.trans_dist::ReadCleanReq           505                       # Transaction distribution
system.tol2bus.trans_dist::ReadSharedReq          140                       # Transaction distribution
system.tol2bus.trans_dist::InvalidateReq        95925                       # Transaction distribution
system.tol2bus.trans_dist::InvalidateResp        95922                       # Transaction distribution
system.tol2bus.pkt_count_system.cpu.icache.mem_side::system.l2.cpu_side         1387                       # Packet count per connected master and slave (bytes)
system.tol2bus.pkt_count_system.cpu.dcache.mem_side::system.l2.cpu_side       295368                       # Packet count per connected master and slave (bytes)
system.tol2bus.pkt_count::total                296755                       # Packet count per connected master and slave (bytes)
system.tol2bus.pkt_size_system.cpu.icache.mem_side::system.l2.cpu_side        56448                       # Cumulative packet size per connected master and slave (bytes)
system.tol2bus.pkt_size_system.cpu.dcache.mem_side::system.l2.cpu_side      6434432                       # Cumulative packet size per connected master and slave (bytes)
system.tol2bus.pkt_size::total                6490880                       # Cumulative packet size per connected master and slave (bytes)
system.tol2bus.snoops                           65387                       # Total snoops (count)
system.tol2bus.snoopTraffic                   4151232                       # Total snoop traffic (bytes)
system.tol2bus.snoop_fanout::samples           164692                       # Request fanout histogram
system.tol2bus.snoop_fanout::mean            0.000783                       # Request fanout histogram
system.tol2bus.snoop_fanout::stdev           0.027976                       # Request fanout histogram
system.tol2bus.snoop_fanout::underflows             0      0.00%      0.00% # Request fanout histogram
system.tol2bus.snoop_fanout::0                 164563     99.92%     99.92% # Request fanout histogram
system.tol2bus.snoop_fanout::1                    129      0.08%    100.00% # Request fanout histogram
system.tol2bus.snoop_fanout::2                      0      0.00%    100.00% # Request fanout histogram
system.tol2bus.snoop_fanout::overflows              0      0.00%    100.00% # Request fanout histogram
system.tol2bus.snoop_fanout::min_value              0                       # Request fanout histogram
system.tol2bus.snoop_fanout::max_value              1                       # Request fanout histogram
system.tol2bus.snoop_fanout::total             164692                       # Request fanout histogram
system.tol2bus.reqLayer0.occupancy          196781949                       # Layer occupancy (ticks)
system.tol2bus.reqLayer0.utilization             20.0                       # Layer utilization (%)
system.tol2bus.respLayer1.occupancy          52273500                       # Layer occupancy (ticks)
system.tol2bus.respLayer1.utilization             5.3                       # Layer utilization (%)
system.tol2bus.respLayer0.occupancy            757500                       # Layer occupancy (ticks)
system.tol2bus.respLayer0.utilization             0.1                       # Layer utilization (%)
system.tol2bus.power_state.pwrStateResidencyTicks::UNDEFINED    981802500                       # Cumulative time (in ticks) in various power states
system.voltage_domain.voltage                       1                       # Voltage in Volts
system.clk_domain.clock                          1000                       # Clock period in ticks
system.l2.demand_hits::.cpu.inst                   46                       # number of demand (read+write) hits
system.l2.demand_hits::.cpu.data                   34                       # number of demand (read+write) hits
system.l2.demand_hits::.cpu.icache.prefetcher           40                       # number of demand (read+write) hits
system.l2.demand_hits::total                      120                       # number of demand (read+write) hits
system.l2.overall_hits::.cpu.inst                  46                       # number of overall hits
system.l2.overall_hits::.cpu.data                  34                       # number of overall hits
system.l2.overall_hits::.cpu.icache.prefetcher           40                       # number of overall hits
system.l2.overall_hits::total                     120                       # number of overall hits
system.l2.demand_misses::.cpu.inst                419                       # number of demand (read+write) misses
system.l2.demand_misses::.cpu.data               2841                       # number of demand (read+write) misses
system.l2.demand_misses::total                   3260                       # number of demand (read+write) misses
system.l2.overall_misses::.cpu.inst               419                       # number of overall misses
system.l2.overall_misses::.cpu.data              2841                       # number of overall misses
system.l2.overall_misses::total                  3260                       # number of overall misses
system.l2.demand_miss_latency::.cpu.inst     33309500                       # number of demand (read+write) miss cycles
system.l2.demand_miss_latency::.cpu.data    225898500                       # number of demand (read+write) miss cycles
system.l2.demand_miss_latency::total        259208000                       # number of demand (read+write) miss cycles
system.l2.overall_miss_latency::.cpu.inst     33309500                       # number of overall miss cycles
system.l2.overall_miss_latency::.cpu.data    225898500                       # number of overall miss cycles
system.l2.overall_miss_latency::total       259208000                       # number of overall miss cycles
system.l2.demand_accesses::.cpu.inst              465                       # number of demand (read+write) accesses
system.l2.demand_accesses::.cpu.data             2875                       # number of demand (read+write) accesses
system.l2.demand_accesses::.cpu.icache.prefetcher           40                       # number of demand (read+write) accesses
system.l2.demand_accesses::total                 3380                       # number of demand (read+write) accesses
system.l2.overall_accesses::.cpu.inst             465                       # number of overall (read+write) accesses
system.l2.overall_accesses::.cpu.data            2875                       # number of overall (read+write) accesses
system.l2.overall_accesses::.cpu.icache.prefetcher           40                       # number of overall (read+write) accesses
system.l2.overall_accesses::total                3380                       # number of overall (read+write) accesses
system.l2.demand_miss_rate::.cpu.inst        0.901075                       # miss rate for demand accesses
system.l2.demand_miss_rate::.cpu.data        0.988174                       # miss rate for demand accesses
system.l2.demand_miss_rate::total            0.964497                       # miss rate for demand accesses
system.l2.overall_miss_rate::.cpu.inst       0.901075                       # miss rate for overall accesses
system.l2.overall_miss_rate::.cpu.data       0.988174                       # miss rate for overall accesses
system.l2.overall_miss_rate::total           0.964497                       # miss rate for overall accesses
system.l2.demand_avg_miss_latency::.cpu.inst 79497.613365                       # average overall miss latency
system.l2.demand_avg_miss_latency::.cpu.data 79513.727561                       # average overall miss latency
system.l2.demand_avg_miss_latency::total 79511.656442                       # average overall miss latency
system.l2.overall_avg_miss_latency::.cpu.inst 79497.613365                       # average overall miss latency
system.l2.overall_avg_miss_latency::.cpu.data 79513.727561                       # average overall miss latency
system.l2.overall_avg_miss_latency::total 79511.656442                       # average overall miss latency
system.l2.blocked_cycles::no_mshrs                  0                       # number of cycles access was blocked
system.l2.blocked_cycles::no_targets                0                       # number of cycles access was blocked
system.l2.blocked::no_mshrs                         0                       # number of cycles access was blocked
system.l2.blocked::no_targets                       0                       # number of cycles access was blocked
system.l2.avg_blocked_cycles::no_mshrs            nan                       # average number of cycles each access was blocked
system.l2.avg_blocked_cycles::no_targets          nan                       # average number of cycles each access was blocked
system.l2.writebacks::.writebacks               64863                       # number of writebacks
system.l2.writebacks::total                     64863                       # number of writebacks
system.l2.demand_mshr_misses::.cpu.inst           419                       # number of demand (read+write) MSHR misses
system.l2.demand_mshr_misses::.cpu.data          2841                       # number of demand (read+write) MSHR misses
system.l2.demand_mshr_misses::total              3260                       # number of demand (read+write) MSHR misses
system.l2.overall_mshr_misses::.cpu.inst          419                       # number of overall MSHR misses
system.l2.overall_mshr_misses::.cpu.data         2841                       # number of overall MSHR misses
system.l2.overall_mshr_misses::total             3260                       # number of overall MSHR misses
system.l2.demand_mshr_miss_latency::.cpu.inst     29119500                       # number of demand (read+write) MSHR miss cycles
system.l2.demand_mshr_miss_latency::.cpu.data    197488500                       # number of demand (read+write) MSHR miss cycles
system.l2.demand_mshr_miss_latency::total    226608000                       # number of demand (read+write) MSHR miss cycles
system.l2.overall_mshr_miss_latency::.cpu.inst     29119500                       # number of overall MSHR miss cycles
system.l2.overall_mshr_miss_latency::.cpu.data    197488500                       # number of overall MSHR miss cycles
system.l2.overall_mshr_miss_latency::total    226608000                       # number of overall MSHR miss cycles
system.l2.demand_mshr_miss_rate::.cpu.inst     0.901075                       # mshr miss rate for demand accesses
system.l2.demand_mshr_miss_rate::.cpu.data     0.988174                       # mshr miss rate for demand accesses
system.l2.demand_mshr_miss_rate::total       0.964497                       # mshr miss rate for demand accesses
system.l2.overall_mshr_miss_rate::.cpu.inst     0.901075                       # mshr miss rate for overall accesses
system.l2.overall_mshr_miss_rate::.cpu.data     0.988174                       # mshr miss rate for overall accesses
system.l2.overall_mshr_miss_rate::total      0.964497                       # mshr miss rate for overall accesses
system.l2.demand_avg_mshr_miss_latency::.cpu.inst 69497.613365                       # average overall mshr miss latency
system.l2.demand_avg_mshr_miss_latency::.cpu.data 69513.727561                       # average overall mshr miss latency
system.l2.demand_avg_mshr_miss_latency::total 69511.656442                       # average overall mshr miss latency
system.l2.overall_avg_mshr_miss_latency::.cpu.inst 69497.613365                       # average overall mshr miss latency
system.l2.overall_avg_mshr_miss_latency::.cpu.data 69513.727561                       # average overall mshr miss latency
system.l2.overall_avg_mshr_miss_latency::total 69511.656442                       # average overall mshr miss latency
system.l2.replacements                          65387                       # number of replacements
system.l2.WritebackDirty_hits::.writebacks        97663                       # number of WritebackDirty hits
system.l2.WritebackDirty_hits::total            97663                       # number of WritebackDirty hits
system.l2.WritebackDirty_accesses::.writebacks        97663                       # number of WritebackDirty accesses(hits+misses)
system.l2.WritebackDirty_accesses::total        97663                       # number of WritebackDirty accesses(hits+misses)
system.l2.WritebackClean_hits::.writebacks          377                       # number of WritebackClean hits
system.l2.WritebackClean_hits::total              377                       # number of WritebackClean hits
system.l2.WritebackClean_accesses::.writebacks          377                       # number of WritebackClean accesses(hits+misses)
system.l2.WritebackClean_accesses::total          377                       # number of WritebackClean accesses(hits+misses)
system.l2.ReadExReq_hits::.cpu.data                18                       # number of ReadExReq hits
system.l2.ReadExReq_hits::total                    18                       # number of ReadExReq hits
system.l2.ReadExReq_misses::.cpu.data            2717                       # number of ReadExReq misses
system.l2.ReadExReq_misses::total                2717                       # number of ReadExReq misses
system.l2.ReadExReq_miss_latency::.cpu.data    215257500                       # number of ReadExReq miss cycles
system.l2.ReadExReq_miss_latency::total     215257500                       # number of ReadExReq miss cycles
system.l2.ReadExReq_accesses::.cpu.data          2735                       # number of ReadExReq accesses(hits+misses)
system.l2.ReadExReq_accesses::total              2735                       # number of ReadExReq accesses(hits+misses)
system.l2.ReadExReq_miss_rate::.cpu.data     0.993419                       # miss rate for ReadExReq accesses
system.l2.ReadExReq_miss_rate::total         0.993419                       # miss rate for ReadExReq accesses
system.l2.ReadExReq_avg_miss_latency::.cpu.data 79226.168568                       # average ReadExReq miss latency
system.l2.ReadExReq_avg_miss_latency::total 79226.168568                       # average ReadExReq miss latency
system.l2.ReadExReq_mshr_misses::.cpu.data         2717                       # number of ReadExReq MSHR misses
system.l2.ReadExReq_mshr_misses::total           2717                       # number of ReadExReq MSHR misses
system.l2.ReadExReq_mshr_miss_latency::.cpu.data    188087500                       # number of ReadExReq MSHR miss cycles
system.l2.ReadExReq_mshr_miss_latency::total    188087500                       # number of ReadExReq MSHR miss cycles
system.l2.ReadExReq_mshr_miss_rate::.cpu.data     0.993419                       # mshr miss rate for ReadExReq accesses
system.l2.ReadExReq_mshr_miss_rate::total     0.993419                       # mshr miss rate for ReadExReq accesses
system.l2.ReadExReq_avg_mshr_miss_latency::.cpu.data 69226.168568                       # average ReadExReq mshr miss latency
system.l2.ReadExReq_avg_mshr_miss_latency::total 69226.168568                       # average ReadExReq mshr miss latency
system.l2.ReadCleanReq_hits::.cpu.inst             46                       # number of ReadCleanReq hits
system.l2.ReadCleanReq_hits::.cpu.icache.prefetcher           40                       # number of ReadCleanReq hits
system.l2.ReadCleanReq_hits::total                 86                       # number of ReadCleanReq hits
system.l2.ReadCleanReq_misses::.cpu.inst          419                       # number of ReadCleanReq misses
system.l2.ReadCleanReq_misses::total              419                       # number of ReadCleanReq misses
system.l2.ReadCleanReq_miss_latency::.cpu.inst     33309500                       # number of ReadCleanReq miss cycles
[...]
system.cpu.dcache.overall_misses::.cpu.data       118287                       # number of overall misses
system.cpu.dcache.overall_misses::total        118287                       # number of overall misses
system.cpu.dcache.demand_miss_latency::.cpu.data   4558954190                       # number of demand (read+write) miss cycles
system.cpu.dcache.demand_miss_latency::total   4558954190                       # number of demand (read+write) miss cycles
system.cpu.dcache.overall_miss_latency::.cpu.data   4558954190                       # number of overall miss cycles
system.cpu.dcache.overall_miss_latency::total   4558954190                       # number of overall miss cycles
system.cpu.dcache.demand_accesses::.cpu.data       377831                       # number of demand (read+write) accesses
system.cpu.dcache.demand_accesses::total       377831                       # number of demand (read+write) accesses
system.cpu.dcache.overall_accesses::.cpu.data       377839                       # number of overall (read+write) accesses
system.cpu.dcache.overall_accesses::total       377839                       # number of overall (read+write) accesses
system.cpu.dcache.demand_miss_rate::.cpu.data     0.313061                       # miss rate for demand accesses
system.cpu.dcache.demand_miss_rate::total     0.313061                       # miss rate for demand accesses
system.cpu.dcache.overall_miss_rate::.cpu.data     0.313062                       # miss rate for overall accesses
system.cpu.dcache.overall_miss_rate::total     0.313062                       # miss rate for overall accesses
system.cpu.dcache.demand_avg_miss_latency::.cpu.data 38542.441835                       # average overall miss latency
system.cpu.dcache.demand_avg_miss_latency::total 38542.441835                       # average overall miss latency
system.cpu.dcache.overall_avg_miss_latency::.cpu.data 38541.464320                       # average overall miss latency
system.cpu.dcache.overall_avg_miss_latency::total 38541.464320                       # average overall miss latency
system.cpu.dcache.blocked_cycles::no_mshrs      1475527                       # number of cycles access was blocked
system.cpu.dcache.blocked_cycles::no_targets            0                       # number of cycles access was blocked
system.cpu.dcache.blocked::no_mshrs             91846                       # number of cycles access was blocked
system.cpu.dcache.blocked::no_targets               0                       # number of cycles access was blocked
system.cpu.dcache.avg_blocked_cycles::no_mshrs    16.065229                       # average number of cycles each access was blocked
system.cpu.dcache.avg_blocked_cycles::no_targets          nan                       # average number of cycles each access was blocked
system.cpu.dcache.writebacks::.writebacks        97665                       # number of writebacks
system.cpu.dcache.writebacks::total             97665                       # number of writebacks
system.cpu.dcache.demand_mshr_hits::.cpu.data        19487                       # number of demand (read+write) MSHR hits
system.cpu.dcache.demand_mshr_hits::total        19487                       # number of demand (read+write) MSHR hits
system.cpu.dcache.overall_mshr_hits::.cpu.data        19487                       # number of overall MSHR hits
system.cpu.dcache.overall_mshr_hits::total        19487                       # number of overall MSHR hits
system.cpu.dcache.demand_mshr_misses::.cpu.data        98797                       # number of demand (read+write) MSHR misses
system.cpu.dcache.demand_mshr_misses::total        98797                       # number of demand (read+write) MSHR misses
system.cpu.dcache.overall_mshr_misses::.cpu.data        98800                       # number of overall MSHR misses
system.cpu.dcache.overall_mshr_misses::total        98800                       # number of overall MSHR misses
system.cpu.dcache.demand_mshr_miss_latency::.cpu.data   3302391053                       # number of demand (read+write) MSHR miss cycles
system.cpu.dcache.demand_mshr_miss_latency::total   3302391053                       # number of demand (read+write) MSHR miss cycles
system.cpu.dcache.overall_mshr_miss_latency::.cpu.data   3302653553                       # number of overall MSHR miss cycles
system.cpu.dcache.overall_mshr_miss_latency::total   3302653553                       # number of overall MSHR miss cycles
system.cpu.dcache.demand_mshr_miss_rate::.cpu.data     0.261485                       # mshr miss rate for demand accesses
system.cpu.dcache.demand_mshr_miss_rate::total     0.261485                       # mshr miss rate for demand accesses
system.cpu.dcache.overall_mshr_miss_rate::.cpu.data     0.261487                       # mshr miss rate for overall accesses
system.cpu.dcache.overall_mshr_miss_rate::total     0.261487                       # mshr miss rate for overall accesses
system.cpu.dcache.demand_avg_mshr_miss_latency::.cpu.data 33426.025618                       # average overall mshr miss latency
system.cpu.dcache.demand_avg_mshr_miss_latency::total 33426.025618                       # average overall mshr miss latency
system.cpu.dcache.overall_avg_mshr_miss_latency::.cpu.data 33427.667540                       # average overall mshr miss latency
system.cpu.dcache.overall_avg_mshr_miss_latency::total 33427.667540                       # average overall mshr miss latency
system.cpu.dcache.replacements                  97773                       # number of replacements
system.cpu.dcache.ReadReq_hits::.cpu.data       158628                       # number of ReadReq hits
system.cpu.dcache.ReadReq_hits::total          158628                       # number of ReadReq hits
system.cpu.dcache.ReadReq_misses::.cpu.data          382                       # number of ReadReq misses
system.cpu.dcache.ReadReq_misses::total           382                       # number of ReadReq misses
system.cpu.dcache.ReadReq_miss_latency::.cpu.data     26704000                       # number of ReadReq miss cycles
system.cpu.dcache.ReadReq_miss_latency::total     26704000                       # number of ReadReq miss cycles
system.cpu.dcache.ReadReq_accesses::.cpu.data       159010                       # number of ReadReq accesses(hits+misses)
system.cpu.dcache.ReadReq_accesses::total       159010                       # number of ReadReq accesses(hits+misses)
system.cpu.dcache.ReadReq_miss_rate::.cpu.data     0.002402                       # miss rate for ReadReq accesses
system.cpu.dcache.ReadReq_miss_rate::total     0.002402                       # miss rate for ReadReq accesses
system.cpu.dcache.ReadReq_avg_miss_latency::.cpu.data 69905.759162                       # average ReadReq miss latency
system.cpu.dcache.ReadReq_avg_miss_latency::total 69905.759162                       # average ReadReq miss latency
system.cpu.dcache.ReadReq_mshr_hits::.cpu.data          246                       # number of ReadReq MSHR hits
system.cpu.dcache.ReadReq_mshr_hits::total          246                       # number of ReadReq MSHR hits
system.cpu.dcache.ReadReq_mshr_misses::.cpu.data          136                       # number of ReadReq MSHR misses
system.cpu.dcache.ReadReq_mshr_misses::total          136                       # number of ReadReq MSHR misses
system.cpu.dcache.ReadReq_mshr_miss_latency::.cpu.data     10687500                       # number of ReadReq MSHR miss cycles
system.cpu.dcache.ReadReq_mshr_miss_latency::total     10687500                       # number of ReadReq MSHR miss cycles
system.cpu.dcache.ReadReq_mshr_miss_rate::.cpu.data     0.000855                       # mshr miss rate for ReadReq accesses
system.cpu.dcache.ReadReq_mshr_miss_rate::total     0.000855                       # mshr miss rate for ReadReq accesses
system.cpu.dcache.ReadReq_avg_mshr_miss_latency::.cpu.data 78584.558824                       # average ReadReq mshr miss latency
system.cpu.dcache.ReadReq_avg_mshr_miss_latency::total 78584.558824                       # average ReadReq mshr miss latency
system.cpu.dcache.WriteReq_hits::.cpu.data       100919                       # number of WriteReq hits
system.cpu.dcache.WriteReq_hits::total         100919                       # number of WriteReq hits
system.cpu.dcache.WriteReq_misses::.cpu.data        21981                       # number of WriteReq misses
system.cpu.dcache.WriteReq_misses::total        21981                       # number of WriteReq misses
system.cpu.dcache.WriteReq_miss_latency::.cpu.data   1364696623                       # number of WriteReq miss cycles
system.cpu.dcache.WriteReq_miss_latency::total   1364696623                       # number of WriteReq miss cycles
system.cpu.dcache.WriteReq_accesses::.cpu.data       122900                       # number of WriteReq accesses(hits+misses)
system.cpu.dcache.WriteReq_accesses::total       122900                       # number of WriteReq accesses(hits+misses)
system.cpu.dcache.WriteReq_miss_rate::.cpu.data     0.178853                       # miss rate for WriteReq accesses
system.cpu.dcache.WriteReq_miss_rate::total     0.178853                       # miss rate for WriteReq accesses
system.cpu.dcache.WriteReq_avg_miss_latency::.cpu.data 62085.283791                       # average WriteReq miss latency
system.cpu.dcache.WriteReq_avg_miss_latency::total 62085.283791                       # average WriteReq miss latency
system.cpu.dcache.WriteReq_mshr_hits::.cpu.data        19241                       # number of WriteReq MSHR hits
system.cpu.dcache.WriteReq_mshr_hits::total        19241                       # number of WriteReq MSHR hits
system.cpu.dcache.WriteReq_mshr_misses::.cpu.data         2740                       # number of WriteReq MSHR misses
system.cpu.dcache.WriteReq_mshr_misses::total         2740                       # number of WriteReq MSHR misses
system.cpu.dcache.WriteReq_mshr_miss_latency::.cpu.data    220066986                       # number of WriteReq MSHR miss cycles
system.cpu.dcache.WriteReq_mshr_miss_latency::total    220066986                       # number of WriteReq MSHR miss cycles
system.cpu.dcache.WriteReq_mshr_miss_rate::.cpu.data     0.022295                       # mshr miss rate for WriteReq accesses
system.cpu.dcache.WriteReq_mshr_miss_rate::total     0.022295                       # mshr miss rate for WriteReq accesses
system.cpu.dcache.WriteReq_avg_mshr_miss_latency::.cpu.data 80316.418248                       # average WriteReq mshr miss latency
system.cpu.dcache.WriteReq_avg_mshr_miss_latency::total 80316.418248                       # average WriteReq mshr miss latency
system.cpu.dcache.SoftPFReq_hits::.cpu.data            5                       # number of SoftPFReq hits
system.cpu.dcache.SoftPFReq_hits::total             5                       # number of SoftPFReq hits
system.cpu.dcache.SoftPFReq_misses::.cpu.data            3                       # number of SoftPFReq misses
system.cpu.dcache.SoftPFReq_misses::total            3                       # number of SoftPFReq misses
system.cpu.dcache.SoftPFReq_accesses::.cpu.data            8                       # number of SoftPFReq accesses(hits+misses)
system.cpu.dcache.SoftPFReq_accesses::total            8                       # number of SoftPFReq accesses(hits+misses)
system.cpu.dcache.SoftPFReq_miss_rate::.cpu.data     0.375000                       # miss rate for SoftPFReq accesses
system.cpu.dcache.SoftPFReq_miss_rate::total     0.375000                       # miss rate for SoftPFReq accesses
system.cpu.dcache.SoftPFReq_mshr_misses::.cpu.data            3                       # number of SoftPFReq MSHR misses
system.cpu.dcache.SoftPFReq_mshr_misses::total            3                       # number of SoftPFReq MSHR misses
system.cpu.dcache.SoftPFReq_mshr_miss_latency::.cpu.data       262500                       # number of SoftPFReq MSHR miss cycles
system.cpu.dcache.SoftPFReq_mshr_miss_latency::total       262500                       # number of SoftPFReq MSHR miss cycles
system.cpu.dcache.SoftPFReq_mshr_miss_rate::.cpu.data     0.375000                       # mshr miss rate for SoftPFReq accesses
system.cpu.dcache.SoftPFReq_mshr_miss_rate::total     0.375000                       # mshr miss rate for SoftPFReq accesses
system.cpu.dcache.SoftPFReq_avg_mshr_miss_latency::.cpu.data        87500                       # average SoftPFReq mshr miss latency
system.cpu.dcache.SoftPFReq_avg_mshr_miss_latency::total        87500                       # average SoftPFReq mshr miss latency
system.cpu.dcache.WriteLineReq_misses::.cpu.data        95921                       # number of WriteLineReq misses
system.cpu.dcache.WriteLineReq_misses::total        95921                       # number of WriteLineReq misses
system.cpu.dcache.WriteLineReq_miss_latency::.cpu.data   3167553567                       # number of WriteLineReq miss cycles
system.cpu.dcache.WriteLineReq_miss_latency::total   3167553567                       # number of WriteLineReq miss cycles
system.cpu.dcache.WriteLineReq_accesses::.cpu.data        95921                       # number of WriteLineReq accesses(hits+misses)
system.cpu.dcache.WriteLineReq_accesses::total        95921                       # number of WriteLineReq accesses(hits+misses)
system.cpu.dcache.WriteLineReq_miss_rate::.cpu.data            1                       # miss rate for WriteLineReq accesses
system.cpu.dcache.WriteLineReq_miss_rate::total            1                       # miss rate for WriteLineReq accesses
system.cpu.dcache.WriteLineReq_avg_miss_latency::.cpu.data 33022.524442                       # average WriteLineReq miss latency
system.cpu.dcache.WriteLineReq_avg_miss_latency::total 33022.524442                       # average WriteLineReq miss latency
system.cpu.dcache.WriteLineReq_mshr_misses::.cpu.data        95921                       # number of WriteLineReq MSHR misses
system.cpu.dcache.WriteLineReq_mshr_misses::total        95921                       # number of WriteLineReq MSHR misses
system.cpu.dcache.WriteLineReq_mshr_miss_latency::.cpu.data   3071636567                       # number of WriteLineReq MSHR miss cycles
system.cpu.dcache.WriteLineReq_mshr_miss_latency::total   3071636567                       # number of WriteLineReq MSHR miss cycles
system.cpu.dcache.WriteLineReq_mshr_miss_rate::.cpu.data            1                       # mshr miss rate for WriteLineReq accesses
system.cpu.dcache.WriteLineReq_mshr_miss_rate::total            1                       # mshr miss rate for WriteLineReq accesses
system.cpu.dcache.WriteLineReq_avg_mshr_miss_latency::.cpu.data 32022.566143                       # average WriteLineReq mshr miss latency
system.cpu.dcache.WriteLineReq_avg_mshr_miss_latency::total 32022.566143                       # average WriteLineReq mshr miss latency
system.cpu.dcache.LoadLockedReq_hits::.cpu.data           23                       # number of LoadLockedReq hits
system.cpu.dcache.LoadLockedReq_hits::total           23                       # number of LoadLockedReq hits
system.cpu.dcache.LoadLockedReq_misses::.cpu.data            1                       # number of LoadLockedReq misses
system.cpu.dcache.LoadLockedReq_misses::total            1                       # number of LoadLockedReq misses
system.cpu.dcache.LoadLockedReq_miss_latency::.cpu.data        86500                       # number of LoadLockedReq miss cycles
system.cpu.dcache.LoadLockedReq_miss_latency::total        86500                       # number of LoadLockedReq miss cycles
system.cpu.dcache.LoadLockedReq_accesses::.cpu.data           24                       # number of LoadLockedReq accesses(hits+misses)
system.cpu.dcache.LoadLockedReq_accesses::total           24                       # number of LoadLockedReq accesses(hits+misses)
system.cpu.dcache.LoadLockedReq_miss_rate::.cpu.data     0.041667                       # miss rate for LoadLockedReq accesses
system.cpu.dcache.LoadLockedReq_miss_rate::total     0.041667                       # miss rate for LoadLockedReq accesses
system.cpu.dcache.LoadLockedReq_avg_miss_latency::.cpu.data        86500                       # average LoadLockedReq miss latency
system.cpu.dcache.LoadLockedReq_avg_miss_latency::total        86500                       # average LoadLockedReq miss latency
system.cpu.dcache.LoadLockedReq_mshr_misses::.cpu.data            1                       # number of LoadLockedReq MSHR misses
system.cpu.dcache.LoadLockedReq_mshr_misses::total            1                       # number of LoadLockedReq MSHR misses
system.cpu.dcache.LoadLockedReq_mshr_miss_latency::.cpu.data        85500                       # number of LoadLockedReq MSHR miss cycles
system.cpu.dcache.LoadLockedReq_mshr_miss_latency::total        85500                       # number of LoadLockedReq MSHR miss cycles
system.cpu.dcache.LoadLockedReq_mshr_miss_rate::.cpu.data     0.041667                       # mshr miss rate for LoadLockedReq accesses
system.cpu.dcache.LoadLockedReq_mshr_miss_rate::total     0.041667                       # mshr miss rate for LoadLockedReq accesses
system.cpu.dcache.LoadLockedReq_avg_mshr_miss_latency::.cpu.data        85500                       # average LoadLockedReq mshr miss latency
system.cpu.dcache.LoadLockedReq_avg_mshr_miss_latency::total        85500                       # average LoadLockedReq mshr miss latency
system.cpu.dcache.StoreCondReq_hits::.cpu.data           20                       # number of StoreCondReq hits
system.cpu.dcache.StoreCondReq_hits::total           20                       # number of StoreCondReq hits
system.cpu.dcache.StoreCondReq_accesses::.cpu.data           20                       # number of StoreCondReq accesses(hits+misses)
system.cpu.dcache.StoreCondReq_accesses::total           20                       # number of StoreCondReq accesses(hits+misses)
system.cpu.dcache.power_state.pwrStateResidencyTicks::UNDEFINED    981802500                       # Cumulative time (in ticks) in various power states
system.cpu.dcache.tags.tagsinuse           986.747201                       # Cycle average of tags in use
system.cpu.dcache.tags.total_refs              358392                       # Total number of references to valid blocks.
system.cpu.dcache.tags.sampled_refs             98797                       # Sample count of references to valid blocks.
system.cpu.dcache.tags.avg_refs              3.627560                       # Average number of references to valid blocks.
system.cpu.dcache.tags.warmup_cycle            268500                       # Cycle when the warmup percentage was hit.
system.cpu.dcache.tags.occ_blocks::.cpu.data   986.747201                       # Average occupied blocks per requestor
system.cpu.dcache.tags.occ_percent::.cpu.data     0.963620                       # Average percentage of cache occupancy
system.cpu.dcache.tags.occ_percent::total     0.963620                       # Average percentage of cache occupancy
system.cpu.dcache.tags.occ_task_id_blocks::1024         1024                       # Occupied blocks per task id
system.cpu.dcache.tags.age_task_id_blocks_1024::0         1024                       # Occupied blocks per task id
system.cpu.dcache.tags.occ_task_id_percent::1024            1                       # Percentage of cache occupancy per task id
system.cpu.dcache.tags.tag_accesses            854563                       # Number of tag accesses
system.cpu.dcache.tags.data_accesses           854563                       # Number of data accesses
system.cpu.dcache.tags.power_state.pwrStateResidencyTicks::UNDEFINED    981802500                       # Cumulative time (in ticks) in various power states
system.cpu.power_state.pwrStateResidencyTicks::ON    981802500                       # Cumulative time (in ticks) in various power states

---------- End Simulation Statistics   ----------
