
---------- Begin Simulation Statistics ----------
final_tick                                   71207500                       # Number of ticks from beginning of simulation (restored from checkpoints and never reset)
host_inst_rate                                  62591                       # Simulator instruction rate (inst/s)
host_mem_usage                                 864512                       # Number of bytes of host memory used
host_op_rate                                    76404                       # Simulator op (including micro ops) rate (op/s)
host_seconds                                     0.47                       # Real time elapsed on the host
host_tick_rate                              151752202                       # Simulator tick rate (ticks/s)
sim_freq                                 1000000000000                       # Frequency of simulated ticks
sim_insts                                       29355                       # Number of instructions simulated
sim_ops                                         35849                       # Number of ops (including micro ops) simulated
sim_seconds                                  0.000071                       # Number of seconds simulated
sim_ticks                                    71207500                       # Number of ticks simulated
system.cpu.branchPred.BTBCorrect                    0                       # Number of correct BTB predictions (this stat may not work properly.
system.cpu.branchPred.BTBHitPct             68.351727                       # BTB Hit Percentage
system.cpu.branchPred.BTBHits                    3840                       # Number of BTB hits
system.cpu.branchPred.BTBLookups                 5618                       # Number of BTB lookups
system.cpu.branchPred.RASInCorrect                  4                       # Number of incorrect RAS predictions.
system.cpu.branchPred.condIncorrect              1550                       # Number of conditional branches incorrect
system.cpu.branchPred.condPredicted              8879                       # Number of conditional branches predicted
system.cpu.branchPred.indirectHits                 51                       # Number of indirect target hits.
system.cpu.branchPred.indirectLookups             439                       # Number of indirect predictor lookups.
system.cpu.branchPred.indirectMisses              388                       # Number of indirect misses.
system.cpu.branchPred.lookups                   12483                       # Number of BP lookups
system.cpu.branchPred.usedRAS                    1050                       # Number of times the RAS was used to get a target.
system.cpu.branchPredindirectMispredicted          126                       # Number of mispredicted indirect branches.
system.cpu.cc_regfile_reads                     10657                       # number of cc regfile reads
system.cpu.cc_regfile_writes                    10389                       # number of cc regfile writes
system.cpu.commit.amos                              0                       # Number of atomic instructions committed
system.cpu.commit.branchMispredicts              1048                       # The number of times a branch was mispredicted
system.cpu.commit.branches                       6765                       # Number of branches committed
system.cpu.commit.bw_lim_events                  1127                       # number cycles where commit BW limit reached
system.cpu.commit.commitNonSpecStalls              48                       # The number of times commit has been forced to stall to communicate backwards
system.cpu.commit.commitSquashedInsts           15389                       # The number of squashed insts skipped by commit
system.cpu.commit.committedInsts                29435                       # Number of instructions committed
system.cpu.commit.committedOps                  35929                       # Number of ops (including micro ops) committed
system.cpu.commit.committed_per_cycle::samples        60583                       # Number of insts commited each cycle
system.cpu.commit.committed_per_cycle::mean     0.593054                       # Number of insts commited each cycle
system.cpu.commit.committed_per_cycle::stdev     1.559062                       # Number of insts commited each cycle
system.cpu.commit.committed_per_cycle::underflows            0      0.00%      0.00% # Number of insts commited each cycle
system.cpu.commit.committed_per_cycle::0        48315     79.75%     79.75% # Number of insts commited each cycle
system.cpu.commit.committed_per_cycle::1         4709      7.77%     87.52% # Number of insts commited each cycle
system.cpu.commit.committed_per_cycle::2         2428      4.01%     91.53% # Number of insts commited each cycle
system.cpu.commit.committed_per_cycle::3         1451      2.40%     93.93% # Number of insts commited each cycle
system.cpu.commit.committed_per_cycle::4          920      1.52%     95.44% # Number of insts commited each cycle
system.cpu.commit.committed_per_cycle::5          863      1.42%     96.87% # Number of insts commited each cycle
system.cpu.commit.committed_per_cycle::6          390      0.64%     97.51% # Number of insts commited each cycle
system.cpu.commit.committed_per_cycle::7          380      0.63%     98.14% # Number of insts commited each cycle
system.cpu.commit.committed_per_cycle::8         1127      1.86%    100.00% # Number of insts commited each cycle
system.cpu.commit.committed_per_cycle::overflows            0      0.00%    100.00% # Number of insts commited each cycle
system.cpu.commit.committed_per_cycle::min_value            0                       # Number of insts commited each cycle
system.cpu.commit.committed_per_cycle::max_value            8                       # Number of insts commited each cycle
system.cpu.commit.committed_per_cycle::total        60583                       # Number of insts commited each cycle
system.cpu.commit.fp_insts                          0                       # Number of committed floating point instructions.
system.cpu.commit.function_calls                  609                       # Number of function calls committed.
system.cpu.commit.int_insts                     32730                       # Number of committed integer instructions.
system.cpu.commit.loads                          5438                       # Number of loads committed
system.cpu.commit.membars                          24                       # Number of memory barriers committed
system.cpu.commit.op_class_0::No_OpClass            7      0.02%      0.02% # Class of committed instruction
system.cpu.commit.op_class_0::IntAlu            24199     67.35%     67.37% # Class of committed instruction
system.cpu.commit.op_class_0::IntMult              53      0.15%     67.52% # Class of committed instruction
system.cpu.commit.op_class_0::IntDiv                6      0.02%     67.54% # Class of committed instruction
system.cpu.commit.op_class_0::FloatAdd              0      0.00%     67.54% # Class of committed instruction
system.cpu.commit.op_class_0::FloatCmp              0      0.00%     67.54% # Class of committed instruction
system.cpu.commit.op_class_0::FloatCvt              0      0.00%     67.54% # Class of committed instruction
system.cpu.commit.op_class_0::FloatMult             0      0.00%     67.54% # Class of committed instruction
system.cpu.commit.op_class_0::FloatMultAcc            0      0.00%     67.54% # Class of committed instruction
system.cpu.commit.op_class_0::FloatDiv              0      0.00%     67.54% # Class of committed instruction
system.cpu.commit.op_class_0::FloatMisc             0      0.00%     67.54% # Class of committed instruction
system.cpu.commit.op_class_0::FloatSqrt             0      0.00%     67.54% # Class of committed instruction
system.cpu.commit.op_class_0::SimdAdd              26      0.07%     67.61% # Class of committed instruction
system.cpu.commit.op_class_0::SimdAddAcc            0      0.00%     67.61% # Class of committed instruction
system.cpu.commit.op_class_0::SimdAlu              32      0.09%     67.70% # Class of committed instruction
system.cpu.commit.op_class_0::SimdCmp              28      0.08%     67.78% # Class of committed instruction
system.cpu.commit.op_class_0::SimdCvt               0      0.00%     67.78% # Class of committed instruction
system.cpu.commit.op_class_0::SimdMisc             38      0.11%     67.88% # Class of committed instruction
system.cpu.commit.op_class_0::SimdMult              0      0.00%     67.88% # Class of committed instruction
system.cpu.commit.op_class_0::SimdMultAcc            0      0.00%     67.88% # Class of committed instruction
system.cpu.commit.op_class_0::SimdShift             0      0.00%     67.88% # Class of committed instruction
system.cpu.commit.op_class_0::SimdShiftAcc            0      0.00%     67.88% # Class of committed instruction
system.cpu.commit.op_class_0::SimdDiv               0      0.00%     67.88% # Class of committed instruction
system.cpu.commit.op_class_0::SimdSqrt              0      0.00%     67.88% # Class of committed instruction
system.cpu.commit.op_class_0::SimdFloatAdd            0      0.00%     67.88% # Class of committed instruction
system.cpu.commit.op_class_0::SimdFloatAlu            0      0.00%     67.88% # Class of committed instruction
system.cpu.commit.op_class_0::SimdFloatCmp            0      0.00%     67.88% # Class of committed instruction
system.cpu.commit.op_class_0::SimdFloatCvt            0      0.00%     67.88% # Class of committed instruction
system.cpu.commit.op_class_0::SimdFloatDiv            0      0.00%     67.88% # Class of committed instruction
system.cpu.commit.op_class_0::SimdFloatMisc            0      0.00%     67.88% # Class of committed instruction
system.cpu.commit.op_class_0::SimdFloatMult            0      0.00%     67.88% # Class of committed instruction
system.cpu.commit.op_class_0::SimdFloatMultAcc            0      0.00%     67.88% # Class of committed instruction
system.cpu.commit.op_class_0::SimdFloatSqrt            0      0.00%     67.88% # Class of committed instruction
system.cpu.commit.op_class_0::SimdReduceAdd            0      0.00%     67.88% # Class of committed instruction
system.cpu.commit.op_class_0::SimdReduceAlu            0      0.00%     67.88% # Class of committed instruction
system.cpu.commit.op_class_0::SimdReduceCmp            0      0.00%     67.88% # Class of committed instruction
system.cpu.commit.op_class_0::SimdFloatReduceAdd            0      0.00%     67.88% # Class of committed instruction
system.cpu.commit.op_class_0::SimdFloatReduceCmp            0      0.00%     67.88% # Class of committed instruction
system.cpu.commit.op_class_0::SimdAes               0      0.00%     67.88% # Class of committed instruction
system.cpu.commit.op_class_0::SimdAesMix            0      0.00%     67.88% # Class of committed instruction
system.cpu.commit.op_class_0::SimdSha1Hash            0      0.00%     67.88% # Class of committed instruction
system.cpu.commit.op_class_0::SimdSha1Hash2            0      0.00%     67.88% # Class of committed instruction
system.cpu.commit.op_class_0::SimdSha256Hash            0      0.00%     67.88% # Class of committed instruction
system.cpu.commit.op_class_0::SimdSha256Hash2            0      0.00%     67.88% # Class of committed instruction
system.cpu.commit.op_class_0::SimdShaSigma2            0      0.00%     67.88% # Class of committed instruction
system.cpu.commit.op_class_0::SimdShaSigma3            0      0.00%     67.88% # Class of committed instruction
system.cpu.commit.op_class_0::SimdPredAlu            0      0.00%     67.88% # Class of committed instruction
system.cpu.commit.op_class_0::MemRead            5438     15.14%     83.02% # Class of committed instruction
system.cpu.commit.op_class_0::MemWrite           6102     16.98%    100.00% # Class of committed instruction
system.cpu.commit.op_class_0::FloatMemRead            0      0.00%    100.00% # Class of committed instruction
system.cpu.commit.op_class_0::FloatMemWrite            0      0.00%    100.00% # Class of committed instruction
system.cpu.commit.op_class_0::IprAccess             0      0.00%    100.00% # Class of committed instruction
system.cpu.commit.op_class_0::InstPrefetch            0      0.00%    100.00% # Class of committed instruction
system.cpu.commit.op_class_0::total             35929                       # Class of committed instruction
system.cpu.commit.refs                          11540                       # Number of memory references committed
system.cpu.commit.swp_count                         0                       # Number of s/w prefetches committed
system.cpu.commit.vec_insts                       477                       # Number of committed Vector instructions.
system.cpu.committedInsts                       29355                       # Number of Instructions Simulated
system.cpu.committedOps                         35849                       # Number of Ops (including micro ops) Simulated
system.cpu.cpi                               4.851507                       # CPI: Cycles Per Instruction
system.cpu.cpi_total                         4.851507                       # CPI: Total CPI of All Threads
system.cpu.decode.BlockedCycles                 12255                       # Number of cycles decode is blocked
system.cpu.decode.BranchMispred                   508                       # Number of times decode detected a branch misprediction
system.cpu.decode.BranchResolved                 4081                       # Number of times decode resolved a branch
system.cpu.decode.DecodedInsts                  56438                       # Number of instructions handled by decode
system.cpu.decode.IdleCycles                    39484                       # Number of cycles decode is idle
system.cpu.decode.RunCycles                      9584                       # Number of cycles decode is running
system.cpu.decode.SquashCycles                   1088                       # Number of cycles decode is squashing
system.cpu.decode.SquashedInsts                  1755                       # Number of squashed instructions handled by decode
system.cpu.decode.UnblockCycles                   760                       # Number of cycles decode is unblocking
system.cpu.dtb.accesses                             0                       # DTB accesses
system.cpu.dtb.align_faults                         0                       # Number of TLB faults due to alignment restrictions
system.cpu.dtb.domain_faults                        0                       # Number of TLB faults due to domain restrictions
system.cpu.dtb.flush_entries                        0                       # Number of entries that have been flushed from TLB
system.cpu.dtb.flush_tlb                            0                       # Number of times complete TLB was flushed
system.cpu.dtb.flush_tlb_asid                       0                       # Number of times TLB was flushed by ASID
system.cpu.dtb.flush_tlb_mva                        0                       # Number of times TLB was flushed by MVA
system.cpu.dtb.flush_tlb_mva_asid                   0                       # Number of times TLB was flushed by MVA & ASID
system.cpu.dtb.hits                                 0                       # DTB hits
system.cpu.dtb.inst_accesses                        0                       # ITB inst accesses
system.cpu.dtb.inst_hits                            0                       # ITB inst hits
system.cpu.dtb.inst_misses                          0                       # ITB inst misses
system.cpu.dtb.misses                               0                       # DTB misses
system.cpu.dtb.perms_faults                         0                       # Number of TLB faults due to permissions restrictions
system.cpu.dtb.prefetch_faults                      0                       # Number of TLB faults due to prefetch
system.cpu.dtb.read_accesses                        0                       # DTB read accesses
system.cpu.dtb.read_hits                            0                       # DTB read hits
system.cpu.dtb.read_misses                          0                       # DTB read misses
system.cpu.dtb.stage2_mmu.stage2_tlb.accesses            0                       # DTB accesses
system.cpu.dtb.stage2_mmu.stage2_tlb.align_faults            0                       # Number of TLB faults due to alignment restrictions
system.cpu.dtb.stage2_mmu.stage2_tlb.domain_faults            0                       # Number of TLB faults due to domain restrictions
system.cpu.dtb.stage2_mmu.stage2_tlb.flush_entries            0                       # Number of entries that have been flushed from TLB
system.cpu.dtb.stage2_mmu.stage2_tlb.flush_tlb            0                       # Number of times complete TLB was flushed
system.cpu.dtb.stage2_mmu.stage2_tlb.flush_tlb_asid            0                       # Number of times TLB was flushed by ASID
system.cpu.dtb.stage2_mmu.stage2_tlb.flush_tlb_mva            0                       # Number of times TLB was flushed by MVA
system.cpu.dtb.stage2_mmu.stage2_tlb.flush_tlb_mva_asid            0                       # Number of times TLB was flushed by MVA & ASID
system.cpu.dtb.stage2_mmu.stage2_tlb.hits            0                       # DTB hits
system.cpu.dtb.stage2_mmu.stage2_tlb.inst_accesses            0                       # ITB inst accesses
system.cpu.dtb.stage2_mmu.stage2_tlb.inst_hits            0                       # ITB inst hits
system.cpu.dtb.stage2_mmu.stage2_tlb.inst_misses            0                       # ITB inst misses
system.cpu.dtb.stage2_mmu.stage2_tlb.misses            0                       # DTB misses
system.cpu.dtb.stage2_mmu.stage2_tlb.perms_faults            0                       # Number of TLB faults due to permissions restrictions
system.cpu.dtb.stage2_mmu.stage2_tlb.prefetch_faults            0                       # Number of TLB faults due to prefetch
system.cpu.dtb.stage2_mmu.stage2_tlb.read_accesses            0                       # DTB read accesses
system.cpu.dtb.stage2_mmu.stage2_tlb.read_hits            0                       # DTB read hits
system.cpu.dtb.stage2_mmu.stage2_tlb.read_misses            0                       # DTB read misses
system.cpu.dtb.stage2_mmu.stage2_tlb.walker.walkRequestOrigin_Requested::Data            0                       # Table walker requests started/completed, data/inst
system.cpu.dtb.stage2_mmu.stage2_tlb.walker.walkRequestOrigin_Requested::Inst            0                       # Table walker requests started/completed, data/inst
system.cpu.dtb.stage2_mmu.stage2_tlb.walker.walkRequestOrigin_Requested::total            0                       # Table walker requests started/completed, data/inst
system.cpu.dtb.stage2_mmu.stage2_tlb.walker.walkRequestOrigin_Completed::Data            0                       # Table walker requests started/completed, data/inst
system.cpu.dtb.stage2_mmu.stage2_tlb.walker.walkRequestOrigin_Completed::Inst            0                       # Table walker requests started/completed, data/inst
system.cpu.dtb.stage2_mmu.stage2_tlb.walker.walkRequestOrigin_Completed::total            0                       # Table walker requests started/completed, data/inst
system.cpu.dtb.stage2_mmu.stage2_tlb.walker.walkRequestOrigin::total            0                       # Table walker requests started/completed, data/inst
system.cpu.dtb.stage2_mmu.stage2_tlb.walker.walks            0                       # Table walker walks requested
system.cpu.dtb.stage2_mmu.stage2_tlb.write_accesses            0                       # DTB write accesses
system.cpu.dtb.stage2_mmu.stage2_tlb.write_hits            0                       # DTB write hits
system.cpu.dtb.stage2_mmu.stage2_tlb.write_misses            0                       # DTB write misses
system.cpu.dtb.walker.walkRequestOrigin_Requested::Data            0                       # Table walker requests started/completed, data/inst
system.cpu.dtb.walker.walkRequestOrigin_Requested::Inst            0                       # Table walker requests started/completed, data/inst
system.cpu.dtb.walker.walkRequestOrigin_Requested::total            0                       # Table walker requests started/completed, data/inst
system.cpu.dtb.walker.walkRequestOrigin_Completed::Data            0                       # Table walker requests started/completed, data/inst
system.cpu.dtb.walker.walkRequestOrigin_Completed::Inst            0                       # Table walker requests started/completed, data/inst
system.cpu.dtb.walker.walkRequestOrigin_Completed::total            0                       # Table walker requests started/completed, data/inst
system.cpu.dtb.walker.walkRequestOrigin::total            0                       # Table walker requests started/completed, data/inst
system.cpu.dtb.walker.walks                         0                       # Table walker walks requested
system.cpu.dtb.write_accesses                       0                       # DTB write accesses
system.cpu.dtb.write_hits                           0                       # DTB write hits
system.cpu.dtb.write_misses                         0                       # DTB write misses
system.cpu.fetch.Branches                       12483                       # Number of branches that fetch encountered
system.cpu.fetch.CacheLines                      7858                       # Number of cache lines fetched
system.cpu.fetch.Cycles                         17626                       # Number of cycles fetch has run and was not squashing or blocked
system.cpu.fetch.IcacheSquashes                  1097                       # Number of outstanding Icache misses that were squashed
system.cpu.fetch.IcacheWaitRetryStallCycles           61                       # Number of stall cycles due to full MSHR
system.cpu.fetch.Insts                          53876                       # Number of instructions fetch has processed
system.cpu.fetch.MiscStallCycles                    4                       # Number of cycles fetch has spent waiting on interrupts, or bad addresses, or out of MSHRs
system.cpu.fetch.SquashCycles                    3180                       # Number of cycles fetch has spent squashing
system.cpu.fetch.branchRate                  0.087652                       # Number of branch fetches per cycle
system.cpu.fetch.icacheStallCycles              43890                       # Number of cycles fetch is stalled on an Icache miss
system.cpu.fetch.predictedBranches               4941                       # Number of branches that fetch has predicted taken
system.cpu.fetch.rate                        0.378300                       # Number of inst fetches per cycle
system.cpu.fetch.rateDist::samples              63171                       # Number of instructions fetched each cycle (Total)
system.cpu.fetch.rateDist::mean              1.020832                       # Number of instructions fetched each cycle (Total)
system.cpu.fetch.rateDist::stdev             2.388069                       # Number of instructions fetched each cycle (Total)
system.cpu.fetch.rateDist::underflows               0      0.00%      0.00% # Number of instructions fetched each cycle (Total)
system.cpu.fetch.rateDist::0                    51316     81.23%     81.23% # Number of instructions fetched each cycle (Total)
system.cpu.fetch.rateDist::1                      975      1.54%     82.78% # Number of instructions fetched each cycle (Total)
system.cpu.fetch.rateDist::2                     1193      1.89%     84.67% # Number of instructions fetched each cycle (Total)
system.cpu.fetch.rateDist::3                     1066      1.69%     86.35% # Number of instructions fetched each cycle (Total)
system.cpu.fetch.rateDist::4                     1428      2.26%     88.61% # Number of instructions fetched each cycle (Total)
system.cpu.fetch.rateDist::5                      949      1.50%     90.12% # Number of instructions fetched each cycle (Total)
system.cpu.fetch.rateDist::6                      883      1.40%     91.51% # Number of instructions fetched each cycle (Total)
system.cpu.fetch.rateDist::7                      715      1.13%     92.65% # Number of instructions fetched each cycle (Total)
system.cpu.fetch.rateDist::8                     4646      7.35%    100.00% # Number of instructions fetched each cycle (Total)
system.cpu.fetch.rateDist::overflows                0      0.00%    100.00% # Number of instructions fetched each cycle (Total)
system.cpu.fetch.rateDist::min_value                0                       # Number of instructions fetched each cycle (Total)
system.cpu.fetch.rateDist::max_value                8                       # Number of instructions fetched each cycle (Total)
system.cpu.fetch.rateDist::total                63171                       # Number of instructions fetched each cycle (Total)
system.cpu.idleCycles                           79245                       # Total number of cycles that the CPU has spent unscheduled due to idling
system.cpu.iew.branchMispredicts                 1221                       # Number of branch mispredicts detected at execute
system.cpu.iew.exec_branches                     8264                       # Number of branches executed
system.cpu.iew.exec_nop                           156                       # number of nop insts executed
system.cpu.iew.exec_rate                     0.322092                       # Inst execution rate
system.cpu.iew.exec_refs                        14669                       # number of memory reference insts executed
system.cpu.iew.exec_stores                       7049                       # Number of stores executed
system.cpu.iew.exec_swp                             0                       # number of swp insts executed
system.cpu.iew.iewBlockCycles                    2358                       # Number of cycles IEW is blocking
system.cpu.iew.iewDispLoadInsts                  7939                       # Number of dispatched load instructions
system.cpu.iew.iewDispNonSpecInsts                 74                       # Number of dispatched non-speculative instructions
system.cpu.iew.iewDispSquashedInsts               221                       # Number of squashed instructions skipped by dispatch
system.cpu.iew.iewDispStoreInsts                 8343                       # Number of dispatched store instructions
system.cpu.iew.iewDispatchedInsts               51321                       # Number of instructions dispatched to IQ
system.cpu.iew.iewExecLoadInsts                  7620                       # Number of load instructions executed
system.cpu.iew.iewExecSquashedInsts              1382                       # Number of squashed instructions skipped in execute
system.cpu.iew.iewExecutedInsts                 45871                       # Number of executed instructions
system.cpu.iew.iewIQFullEvents                     12                       # Number of times the IQ has become full, causing a stall
system.cpu.iew.iewIdleCycles                        0                       # Number of cycles IEW is idle
system.cpu.iew.iewLSQFullEvents                   559                       # Number of times the LSQ has become full, causing a stall
system.cpu.iew.iewSquashCycles                   1088                       # Number of cycles IEW is squashing
system.cpu.iew.iewUnblockCycles                   565                       # Number of cycles IEW is unblocking
system.cpu.iew.lsq.thread0.blockedLoads             0                       # Number of blocked loads due to partial load-store forwarding
system.cpu.iew.lsq.thread0.cacheBlocked            95                       # Number of times an access to memory failed due to the cache being blocked
system.cpu.iew.lsq.thread0.forwLoads               75                       # Number of loads that had data forwarded from stores
system.cpu.iew.lsq.thread0.ignoredResponses            4                       # Number of memory responses ignored because the instruction is squashed
system.cpu.iew.lsq.thread0.invAddrLoads             0                       # Number of loads ignored due to an invalid address
system.cpu.iew.lsq.thread0.invAddrSwpfs             0                       # Number of software prefetches ignored due to an invalid address
system.cpu.iew.lsq.thread0.memOrderViolation           20                       # Number of memory ordering violations
system.cpu.iew.lsq.thread0.rescheduledLoads          125                       # Number of loads that were rescheduled
system.cpu.iew.lsq.thread0.squashedLoads         2501                       # Number of loads squashed
system.cpu.iew.lsq.thread0.squashedStores         2241                       # Number of stores squashed
system.cpu.iew.memOrderViolationEvents             20                       # Number of memory order violations
system.cpu.iew.predictedNotTakenIncorrect         1079                       # Number of branches that were predicted not taken incorrectly
system.cpu.iew.predictedTakenIncorrect            142                       # Number of branches that were predicted taken incorrectly
system.cpu.iew.wb_consumers                     38357                       # num instructions consuming a value
system.cpu.iew.wb_count                         44215                       # cumulative count of insts written-back
system.cpu.iew.wb_fanout                     0.566572                       # average fanout of values written-back
system.cpu.iew.wb_producers                     21732                       # num instructions producing a value
system.cpu.iew.wb_rate                       0.310464                       # insts written-back per cycle
system.cpu.iew.wb_sent                          44965                       # cumulative count of insts sent to commit
system.cpu.int_regfile_reads                    51180                       # number of integer regfile reads
system.cpu.int_regfile_writes                   31414                       # number of integer regfile writes
system.cpu.ipc                               0.206122                       # IPC: Instructions Per Cycle
system.cpu.ipc_total                         0.206122                       # IPC: Total IPC of All Threads
system.cpu.iq.FU_type_0::No_OpClass                 9      0.02%      0.02% # Type of FU issued
system.cpu.iq.FU_type_0::IntAlu                 31668     67.02%     67.04% # Type of FU issued
system.cpu.iq.FU_type_0::IntMult                   55      0.12%     67.15% # Type of FU issued
system.cpu.iq.FU_type_0::IntDiv                     7      0.01%     67.17% # Type of FU issued
system.cpu.iq.FU_type_0::FloatAdd                   0      0.00%     67.17% # Type of FU issued
system.cpu.iq.FU_type_0::FloatCmp                   0      0.00%     67.17% # Type of FU issued
system.cpu.iq.FU_type_0::FloatCvt                   0      0.00%     67.17% # Type of FU issued
system.cpu.iq.FU_type_0::FloatMult                  0      0.00%     67.17% # Type of FU issued
system.cpu.iq.FU_type_0::FloatMultAcc               0      0.00%     67.17% # Type of FU issued
system.cpu.iq.FU_type_0::FloatDiv                   0      0.00%     67.17% # Type of FU issued
system.cpu.iq.FU_type_0::FloatMisc                  1      0.00%     67.17% # Type of FU issued
system.cpu.iq.FU_type_0::FloatSqrt                  0      0.00%     67.17% # Type of FU issued
system.cpu.iq.FU_type_0::SimdAdd                   35      0.07%     67.24% # Type of FU issued
system.cpu.iq.FU_type_0::SimdAddAcc                 0      0.00%     67.24% # Type of FU issued
system.cpu.iq.FU_type_0::SimdAlu                   41      0.09%     67.33% # Type of FU issued
system.cpu.iq.FU_type_0::SimdCmp                   36      0.08%     67.41% # Type of FU issued
system.cpu.iq.FU_type_0::SimdCvt                    0      0.00%     67.41% # Type of FU issued
system.cpu.iq.FU_type_0::SimdMisc                  47      0.10%     67.51% # Type of FU issued
system.cpu.iq.FU_type_0::SimdMult                   0      0.00%     67.51% # Type of FU issued
system.cpu.iq.FU_type_0::SimdMultAcc                0      0.00%     67.51% # Type of FU issued
system.cpu.iq.FU_type_0::SimdShift                  0      0.00%     67.51% # Type of FU issued
system.cpu.iq.FU_type_0::SimdShiftAcc               0      0.00%     67.51% # Type of FU issued
system.cpu.iq.FU_type_0::SimdDiv                    0      0.00%     67.51% # Type of FU issued
system.cpu.iq.FU_type_0::SimdSqrt                   0      0.00%     67.51% # Type of FU issued
system.cpu.iq.FU_type_0::SimdFloatAdd               0      0.00%     67.51% # Type of FU issued
system.cpu.iq.FU_type_0::SimdFloatAlu               0      0.00%     67.51% # Type of FU issued
system.cpu.iq.FU_type_0::SimdFloatCmp               0      0.00%     67.51% # Type of FU issued
system.cpu.iq.FU_type_0::SimdFloatCvt               0      0.00%     67.51% # Type of FU issued
system.cpu.iq.FU_type_0::SimdFloatDiv               0      0.00%     67.51% # Type of FU issued
system.cpu.iq.FU_type_0::SimdFloatMisc              0      0.00%     67.51% # Type of FU issued
system.cpu.iq.FU_type_0::SimdFloatMult              0      0.00%     67.51% # Type of FU issued
system.cpu.iq.FU_type_0::SimdFloatMultAcc            0      0.00%     67.51% # Type of FU issued
system.cpu.iq.FU_type_0::SimdFloatSqrt              0      0.00%     67.51% # Type of FU issued
system.cpu.iq.FU_type_0::SimdReduceAdd              0      0.00%     67.51% # Type of FU issued
system.cpu.iq.FU_type_0::SimdReduceAlu              0      0.00%     67.51% # Type of FU issued
system.cpu.iq.FU_type_0::SimdReduceCmp              0      0.00%     67.51% # Type of FU issued
system.cpu.iq.FU_type_0::SimdFloatReduceAdd            0      0.00%     67.51% # Type of FU issued
system.cpu.iq.FU_type_0::SimdFloatReduceCmp            0      0.00%     67.51% # Type of FU issued
system.cpu.iq.FU_type_0::SimdAes                    0      0.00%     67.51% # Type of FU issued
system.cpu.iq.FU_type_0::SimdAesMix                 0      0.00%     67.51% # Type of FU issued
system.cpu.iq.FU_type_0::SimdSha1Hash               0      0.00%     67.51% # Type of FU issued
system.cpu.iq.FU_type_0::SimdSha1Hash2              0      0.00%     67.51% # Type of FU issued
system.cpu.iq.FU_type_0::SimdSha256Hash             0      0.00%     67.51% # Type of FU issued
system.cpu.iq.FU_type_0::SimdSha256Hash2            0      0.00%     67.51% # Type of FU issued
system.cpu.iq.FU_type_0::SimdShaSigma2              0      0.00%     67.51% # Type of FU issued
system.cpu.iq.FU_type_0::SimdShaSigma3              0      0.00%     67.51% # Type of FU issued
system.cpu.iq.FU_type_0::SimdPredAlu                0      0.00%     67.51% # Type of FU issued
system.cpu.iq.FU_type_0::MemRead                 7911     16.74%     84.25% # Type of FU issued
system.cpu.iq.FU_type_0::MemWrite                7443     15.75%    100.00% # Type of FU issued
system.cpu.iq.FU_type_0::FloatMemRead               0      0.00%    100.00% # Type of FU issued
system.cpu.iq.FU_type_0::FloatMemWrite              0      0.00%    100.00% # Type of FU issued
system.cpu.iq.FU_type_0::IprAccess                  0      0.00%    100.00% # Type of FU issued
system.cpu.iq.FU_type_0::InstPrefetch               0      0.00%    100.00% # Type of FU issued
system.cpu.iq.FU_type_0::total                  47253                       # Type of FU issued
system.cpu.iq.fp_alu_accesses                       0                       # Number of floating point alu accesses
system.cpu.iq.fp_inst_queue_reads                   0                       # Number of floating instruction queue reads
system.cpu.iq.fp_inst_queue_wakeup_accesses            0                       # Number of floating instruction queue wakeup accesses
system.cpu.iq.fp_inst_queue_writes                  0                       # Number of floating instruction queue writes
system.cpu.iq.fu_busy_cnt                         687                       # FU busy when requested
system.cpu.iq.fu_busy_rate                   0.014539                       # FU busy rate (busy events/executed inst)
system.cpu.iq.fu_full::No_OpClass                   0      0.00%      0.00% # attempts to use FU when none available
system.cpu.iq.fu_full::IntAlu                     206     29.99%     29.99% # attempts to use FU when none available
system.cpu.iq.fu_full::IntMult                      0      0.00%     29.99% # attempts to use FU when none available
system.cpu.iq.fu_full::IntDiv                       0      0.00%     29.99% # attempts to use FU when none available
system.cpu.iq.fu_full::FloatAdd                     0      0.00%     29.99% # attempts to use FU when none available
system.cpu.iq.fu_full::FloatCmp                     0      0.00%     29.99% # attempts to use FU when none available
system.cpu.iq.fu_full::FloatCvt                     0      0.00%     29.99% # attempts to use FU when none available
system.cpu.iq.fu_full::FloatMult                    0      0.00%     29.99% # attempts to use FU when none available
system.cpu.iq.fu_full::FloatMultAcc                 0      0.00%     29.99% # attempts to use FU when none available
system.cpu.iq.fu_full::FloatDiv                     0      0.00%     29.99% # attempts to use FU when none available
system.cpu.iq.fu_full::FloatMisc                    0      0.00%     29.99% # attempts to use FU when none available
system.cpu.iq.fu_full::FloatSqrt                    0      0.00%     29.99% # attempts to use FU when none available
system.cpu.iq.fu_full::SimdAdd                      0      0.00%     29.99% # attempts to use FU when none available
system.cpu.iq.fu_full::SimdAddAcc                   0      0.00%     29.99% # attempts to use FU when none available
system.cpu.iq.fu_full::SimdAlu                      2      0.29%     30.28% # attempts to use FU when none available
system.cpu.iq.fu_full::SimdCmp                      3      0.44%     30.71% # attempts to use FU when none available
system.cpu.iq.fu_full::SimdCvt                      0      0.00%     30.71% # attempts to use FU when none available
system.cpu.iq.fu_full::SimdMisc                     0      0.00%     30.71% # attempts to use FU when none available
system.cpu.iq.fu_full::SimdMult                     0      0.00%     30.71% # attempts to use FU when none available
system.cpu.iq.fu_full::SimdMultAcc                  0      0.00%     30.71% # attempts to use FU when none available
system.cpu.iq.fu_full::SimdShift                    0      0.00%     30.71% # attempts to use FU when none available
system.cpu.iq.fu_full::SimdShiftAcc                 0      0.00%     30.71% # attempts to use FU when none available
system.cpu.iq.fu_full::SimdDiv                      0      0.00%     30.71% # attempts to use FU when none available
system.cpu.iq.fu_full::SimdSqrt                     0      0.00%     30.71% # attempts to use FU when none available
system.cpu.iq.fu_full::SimdFloatAdd                 0      0.00%     30.71% # attempts to use FU when none available
system.cpu.iq.fu_full::SimdFloatAlu                 0      0.00%     30.71% # attempts to use FU when none available
system.cpu.iq.fu_full::SimdFloatCmp                 0      0.00%     30.71% # attempts to use FU when none available
system.cpu.iq.fu_full::SimdFloatCvt                 0      0.00%     30.71% # attempts to use FU when none available
system.cpu.iq.fu_full::SimdFloatDiv                 0      0.00%     30.71% # attempts to use FU when none available
system.cpu.iq.fu_full::SimdFloatMisc                0      0.00%     30.71% # attempts to use FU when none available
system.cpu.iq.fu_full::SimdFloatMult                0      0.00%     30.71% # attempts to use FU when none available
system.cpu.iq.fu_full::SimdFloatMultAcc             0      0.00%     30.71% # attempts to use FU when none available
system.cpu.iq.fu_full::SimdFloatSqrt                0      0.00%     30.71% # attempts to use FU when none available
system.cpu.iq.fu_full::SimdReduceAdd                0      0.00%     30.71% # attempts to use FU when none available
system.cpu.iq.fu_full::SimdReduceAlu                0      0.00%     30.71% # attempts to use FU when none available
system.cpu.iq.fu_full::SimdReduceCmp                0      0.00%     30.71% # attempts to use FU when none available
system.cpu.iq.fu_full::SimdFloatReduceAdd            0      0.00%     30.71% # attempts to use FU when none available
system.cpu.iq.fu_full::SimdFloatReduceCmp            0      0.00%     30.71% # attempts to use FU when none available
system.cpu.iq.fu_full::SimdAes                      0      0.00%     30.71% # attempts to use FU when none available
system.cpu.iq.fu_full::SimdAesMix                   0      0.00%     30.71% # attempts to use FU when none available
system.cpu.iq.fu_full::SimdSha1Hash                 0      0.00%     30.71% # attempts to use FU when none available
system.cpu.iq.fu_full::SimdSha1Hash2                0      0.00%     30.71% # attempts to use FU when none available
system.cpu.iq.fu_full::SimdSha256Hash               0      0.00%     30.71% # attempts to use FU when none available
system.cpu.iq.fu_full::SimdSha256Hash2              0      0.00%     30.71% # attempts to use FU when none available
system.cpu.iq.fu_full::SimdShaSigma2                0      0.00%     30.71% # attempts to use FU when none available
system.cpu.iq.fu_full::SimdShaSigma3                0      0.00%     30.71% # attempts to use FU when none available
system.cpu.iq.fu_full::SimdPredAlu                  0      0.00%     30.71% # attempts to use FU when none available
system.cpu.iq.fu_full::MemRead                    195     28.38%     59.10% # attempts to use FU when none available
system.cpu.iq.fu_full::MemWrite                   281     40.90%    100.00% # attempts to use FU when none available
system.cpu.iq.fu_full::FloatMemRead                 0      0.00%    100.00% # attempts to use FU when none available
system.cpu.iq.fu_full::FloatMemWrite                0      0.00%    100.00% # attempts to use FU when none available
system.cpu.iq.fu_full::IprAccess                    0      0.00%    100.00% # attempts to use FU when none available
system.cpu.iq.fu_full::InstPrefetch                 0      0.00%    100.00% # attempts to use FU when none available
system.cpu.iq.int_alu_accesses                  47045                       # Number of integer alu accesses
system.cpu.iq.int_inst_queue_reads             156766                       # Number of integer instruction queue reads
system.cpu.iq.int_inst_queue_wakeup_accesses        43550                       # Number of integer instruction queue wakeup accesses
system.cpu.iq.int_inst_queue_writes             64760                       # Number of integer instruction queue writes
system.cpu.iq.iqInstsAdded                      51091                       # Number of instructions added to the IQ (excludes non-spec)
system.cpu.iq.iqInstsIssued                     47253                       # Number of instructions issued
system.cpu.iq.iqNonSpecInstsAdded                  74                       # Number of non-speculative instructions added to the IQ
system.cpu.iq.iqSquashedInstsExamined           15315                       # Number of squashed instructions iterated over during squash; mainly for profiling
system.cpu.iq.iqSquashedInstsIssued               291                       # Number of squashed instructions issued
system.cpu.iq.iqSquashedNonSpecRemoved             26                       # Number of squashed non-spec instructions that were removed
system.cpu.iq.iqSquashedOperandsExamined        10577                       # Number of squashed operands that are examined and possibly removed from graph
system.cpu.iq.issued_per_cycle::samples         63171                       # Number of insts issued each cycle
system.cpu.iq.issued_per_cycle::mean         0.748017                       # Number of insts issued each cycle
system.cpu.iq.issued_per_cycle::stdev        1.560662                       # Number of insts issued each cycle
system.cpu.iq.issued_per_cycle::underflows            0      0.00%      0.00% # Number of insts issued each cycle
system.cpu.iq.issued_per_cycle::0               46855     74.17%     74.17% # Number of insts issued each cycle
system.cpu.iq.issued_per_cycle::1                4609      7.30%     81.47% # Number of insts issued each cycle
system.cpu.iq.issued_per_cycle::2                3540      5.60%     87.07% # Number of insts issued each cycle
system.cpu.iq.issued_per_cycle::3                2875      4.55%     91.62% # Number of insts issued each cycle
system.cpu.iq.issued_per_cycle::4                2151      3.41%     95.03% # Number of insts issued each cycle
system.cpu.iq.issued_per_cycle::5                1539      2.44%     97.46% # Number of insts issued each cycle
system.cpu.iq.issued_per_cycle::6                 892      1.41%     98.88% # Number of insts issued each cycle
system.cpu.iq.issued_per_cycle::7                 392      0.62%     99.50% # Number of insts issued each cycle
system.cpu.iq.issued_per_cycle::8                 318      0.50%    100.00% # Number of insts issued each cycle
system.cpu.iq.issued_per_cycle::overflows            0      0.00%    100.00% # Number of insts issued each cycle
system.cpu.iq.issued_per_cycle::min_value            0                       # Number of insts issued each cycle
system.cpu.iq.issued_per_cycle::max_value            8                       # Number of insts issued each cycle
system.cpu.iq.issued_per_cycle::total           63171                       # Number of insts issued each cycle
system.cpu.iq.rate                           0.331796                       # Inst issue rate
system.cpu.iq.vec_alu_accesses                    886                       # Number of vector alu accesses
system.cpu.iq.vec_inst_queue_reads               1889                       # Number of vector instruction queue reads
system.cpu.iq.vec_inst_queue_wakeup_accesses          665                       # Number of vector instruction queue wakeup accesses
system.cpu.iq.vec_inst_queue_writes              1739                       # Number of vector instruction queue writes
system.cpu.itb.accesses                             0                       # DTB accesses
system.cpu.itb.align_faults                         0                       # Number of TLB faults due to alignment restrictions
system.cpu.itb.domain_faults                        0                       # Number of TLB faults due to domain restrictions
system.cpu.itb.flush_entries                        0                       # Number of entries that have been flushed from TLB
system.cpu.itb.flush_tlb                            0                       # Number of times complete TLB was flushed
system.cpu.itb.flush_tlb_asid                       0                       # Number of times TLB was flushed by ASID
system.cpu.itb.flush_tlb_mva                        0                       # Number of times TLB was flushed by MVA
system.cpu.itb.flush_tlb_mva_asid                   0                       # Number of times TLB was flushed by MVA & ASID
system.cpu.itb.hits                                 0                       # DTB hits
system.cpu.itb.inst_accesses                        0                       # ITB inst accesses
system.cpu.itb.inst_hits                            0                       # ITB inst hits
system.cpu.itb.inst_misses                          0                       # ITB inst misses
system.cpu.itb.misses                               0                       # DTB misses
system.cpu.itb.perms_faults                         0                       # Number of TLB faults due to permissions restrictions
system.cpu.itb.prefetch_faults                      0                       # Number of TLB faults due to prefetch
system.cpu.itb.read_accesses                        0                       # DTB read accesses
system.cpu.itb.read_hits                            0                       # DTB read hits
system.cpu.itb.read_misses                          0                       # DTB read misses
system.cpu.itb.stage2_mmu.stage2_tlb.accesses            0                       # DTB accesses
system.cpu.itb.stage2_mmu.stage2_tlb.align_faults            0                       # Number of TLB faults due to alignment restrictions
system.cpu.itb.stage2_mmu.stage2_tlb.domain_faults            0                       # Number of TLB faults due to domain restrictions
system.cpu.itb.stage2_mmu.stage2_tlb.flush_entries            0                       # Number of entries that have been flushed from TLB
system.cpu.itb.stage2_mmu.stage2_tlb.flush_tlb            0                       # Number of times complete TLB was flushed
system.cpu.itb.stage2_mmu.stage2_tlb.flush_tlb_asid            0                       # Number of times TLB was flushed by ASID
system.cpu.itb.stage2_mmu.stage2_tlb.flush_tlb_mva            0                       # Number of times TLB was flushed by MVA
system.cpu.itb.stage2_mmu.stage2_tlb.flush_tlb_mva_asid            0                       # Number of times TLB was flushed by MVA & ASID
system.cpu.itb.stage2_mmu.stage2_tlb.hits            0                       # DTB hits
system.cpu.itb.stage2_mmu.stage2_tlb.inst_accesses            0                       # ITB inst accesses
system.cpu.itb.stage2_mmu.stage2_tlb.inst_hits            0                       # ITB inst hits
system.cpu.itb.stage2_mmu.stage2_tlb.inst_misses            0                       # ITB inst misses
system.cpu.itb.stage2_mmu.stage2_tlb.misses            0                       # DTB misses
system.cpu.itb.stage2_mmu.stage2_tlb.perms_faults            0                       # Number of TLB faults due to permissions restrictions
system.cpu.itb.stage2_mmu.stage2_tlb.prefetch_faults            0                       # Number of TLB faults due to prefetch
system.cpu.itb.stage2_mmu.stage2_tlb.read_accesses            0                       # DTB read accesses
system.cpu.itb.stage2_mmu.stage2_tlb.read_hits            0                       # DTB read hits
system.cpu.itb.stage2_mmu.stage2_tlb.read_misses            0                       # DTB read misses
system.cpu.itb.stage2_mmu.stage2_tlb.walker.walkRequestOrigin_Requested::Data            0                       # Table walker requests started/completed, data/inst
system.cpu.itb.stage2_mmu.stage2_tlb.walker.walkRequestOrigin_Requested::Inst            0                       # Table walker requests started/completed, data/inst
system.cpu.itb.stage2_mmu.stage2_tlb.walker.walkRequestOrigin_Requested::total            0                       # Table walker requests started/completed, data/inst
system.cpu.itb.stage2_mmu.stage2_tlb.walker.walkRequestOrigin_Completed::Data            0                       # Table walker requests started/completed, data/inst
system.cpu.itb.stage2_mmu.stage2_tlb.walker.walkRequestOrigin_Completed::Inst            0                       # Table walker requests started/completed, data/inst
system.cpu.itb.stage2_mmu.stage2_tlb.walker.walkRequestOrigin_Completed::total            0                       # Table walker requests started/completed, data/inst
system.cpu.itb.stage2_mmu.stage2_tlb.walker.walkRequestOrigin::total            0                       # Table walker requests started/completed, data/inst
system.cpu.itb.stage2_mmu.stage2_tlb.walker.walks            0                       # Table walker walks requested
system.cpu.itb.stage2_mmu.stage2_tlb.write_accesses            0                       # DTB write accesses
system.cpu.itb.stage2_mmu.stage2_tlb.write_hits            0                       # DTB write hits
system.cpu.itb.stage2_mmu.stage2_tlb.write_misses            0                       # DTB write misses
system.cpu.itb.walker.walkRequestOrigin_Requested::Data            0                       # Table walker requests started/completed, data/inst
system.cpu.itb.walker.walkRequestOrigin_Requested::Inst            0                       # Table walker requests started/completed, data/inst
system.cpu.itb.walker.walkRequestOrigin_Requested::total            0                       # Table walker requests started/completed, data/inst
system.cpu.itb.walker.walkRequestOrigin_Completed::Data            0                       # Table walker requests started/completed, data/inst
system.cpu.itb.walker.walkRequestOrigin_Completed::Inst            0                       # Table walker requests started/completed, data/inst
system.cpu.itb.walker.walkRequestOrigin_Completed::total            0                       # Table walker requests started/completed, data/inst
system.cpu.itb.walker.walkRequestOrigin::total            0                       # Table walker requests started/completed, data/inst
system.cpu.itb.walker.walks                         0                       # Table walker walks requested
system.cpu.itb.write_accesses                       0                       # DTB write accesses
system.cpu.itb.write_hits                           0                       # DTB write hits
system.cpu.itb.write_misses                         0                       # DTB write misses
system.cpu.memDep0.conflictingLoads                12                       # Number of conflicting loads.
system.cpu.memDep0.conflictingStores               89                       # Number of conflicting stores.
system.cpu.memDep0.insertedLoads                 7939                       # Number of loads inserted to the mem dependence unit.
system.cpu.memDep0.insertedStores                8343                       # Number of stores inserted to the mem dependence unit.
system.cpu.misc_regfile_reads                   35462                       # number of misc regfile reads
system.cpu.misc_regfile_writes                     97                       # number of misc regfile writes
system.cpu.numCycles                           142416                       # number of cpu cycles simulated
system.cpu.numWorkItemsCompleted                    0                       # number of work items this cpu completed
system.cpu.numWorkItemsStarted                      0                       # number of work items this cpu started
system.cpu.rename.BlockCycles                    3429                       # Number of cycles rename is blocking
system.cpu.rename.CommittedMaps                 33835                       # Number of HB maps that are committed
system.cpu.rename.IQFullEvents                    229                       # Number of times rename has blocked due to IQ full
system.cpu.rename.IdleCycles                    40335                       # Number of cycles rename is idle
system.cpu.rename.LQFullEvents                      3                       # Number of times rename has blocked due to LQ full
system.cpu.rename.ROBFullEvents                    15                       # Number of times rename has blocked due to ROB full
system.cpu.rename.RenameLookups                 78703                       # Number of register rename lookups that rename has made
system.cpu.rename.RenamedInsts                  54210                       # Number of instructions processed by rename
system.cpu.rename.RenamedOperands               50583                       # Number of destination operands rename has renamed
system.cpu.rename.RunCycles                      9463                       # Number of cycles rename is running
system.cpu.rename.SQFullEvents                   1448                       # Number of times rename has blocked due to SQ full
system.cpu.rename.SquashCycles                   1088                       # Number of cycles rename is squashing
system.cpu.rename.UnblockCycles                  2011                       # Number of cycles rename is unblocking
system.cpu.rename.UndoneMaps                    16748                       # Number of HB maps that are undone due to squashing
system.cpu.rename.int_rename_lookups            60601                       # Number of integer rename lookups
system.cpu.rename.serializeStallCycles           6845                       # count of cycles rename stalled for serializing inst
system.cpu.rename.serializingInsts                296                       # count of serializing insts renamed
system.cpu.rename.skidInsts                      3355                       # count of insts added to the skid buffer
system.cpu.rename.tempSerializingInsts             75                       # count of temporary serializing insts renamed
system.cpu.rename.vec_rename_lookups             1236                       # Number of vector rename lookups
system.cpu.rob.rob_reads                       110423                       # The number of ROB reads
system.cpu.rob.rob_writes                      105240                       # The number of ROB writes
system.cpu.timesIdled                            1371                       # Number of times that the entire CPU went into an idle state and unscheduled itself
system.cpu.vec_regfile_reads                      725                       # number of vector regfile reads
system.cpu.vec_regfile_writes                     184                       # number of vector regfile writes
system.cpu.workload.numSyscalls                    23                       # Number of system calls
system.membus.snoop_filter.hit_multi_requests            0                       # Number of requests hitting in the snoop filter with multiple (>1) holders of the requested data.
system.membus.snoop_filter.hit_multi_snoops            0                       # Number of snoops hitting in the snoop filter with multiple (>1) holders of the requested data.
system.membus.snoop_filter.hit_single_requests            0                       # Number of requests hitting in the snoop filter with a single holder of the requested data.
system.membus.snoop_filter.hit_single_snoops            0                       # Number of snoops hitting in the snoop filter with a single holder of the requested data.
system.membus.snoop_filter.tot_requests          1302                       # Total number of requests made to the snoop filter.
system.membus.snoop_filter.tot_snoops               0                       # Total number of snoops made to the snoop filter.
system.tol2bus.snoop_filter.hit_multi_requests            2                       # Number of requests hitting in the snoop filter with multiple (>1) holders of the requested data.
system.tol2bus.snoop_filter.hit_multi_snoops            0                       # Number of snoops hitting in the snoop filter with multiple (>1) holders of the requested data.
system.tol2bus.snoop_filter.hit_single_requests         1954                       # Number of requests hitting in the snoop filter with a single holder of the requested data.
system.tol2bus.snoop_filter.hit_single_snoops            0                       # Number of snoops hitting in the snoop filter with a single holder of the requested data.
system.tol2bus.snoop_filter.tot_requests         4385                       # Total number of requests made to the snoop filter.
system.tol2bus.snoop_filter.tot_snoops              0                       # Total number of snoops made to the snoop filter.
system.membus.trans_dist::ReadResp               1060                       # Transaction distribution
system.membus.trans_dist::ReadExReq               177                       # Transaction distribution
system.membus.trans_dist::ReadExResp              177                       # Transaction distribution
system.membus.trans_dist::ReadSharedReq          1061                       # Transaction distribution
system.membus.trans_dist::InvalidateReq            64                       # Transaction distribution
system.membus.pkt_count_system.l2.mem_side::system.mem_ctrls.port         2539                       # Packet count per connected master and slave (bytes)
system.membus.pkt_count::total                   2539                       # Packet count per connected master and slave (bytes)
system.membus.pkt_size_system.l2.mem_side::system.mem_ctrls.port        79168                       # Cumulative packet size per connected master and slave (bytes)
system.membus.pkt_size::total                   79168                       # Cumulative packet size per connected master and slave (bytes)
system.membus.snoops                                0                       # Total snoops (count)
system.membus.snoopTraffic                          0                       # Total snoop traffic (bytes)
system.membus.snoop_fanout::samples              1302                       # Request fanout histogram
system.membus.snoop_fanout::mean                    0                       # Request fanout histogram
system.membus.snoop_fanout::stdev                   0                       # Request fanout histogram
system.membus.snoop_fanout::underflows              0      0.00%      0.00% # Request fanout histogram
system.membus.snoop_fanout::0                    1302    100.00%    100.00% # Request fanout histogram
system.membus.snoop_fanout::1                       0      0.00%    100.00% # Request fanout histogram
system.membus.snoop_fanout::overflows               0      0.00%    100.00% # Request fanout histogram
system.membus.snoop_fanout::min_value               0                       # Request fanout histogram
system.membus.snoop_fanout::max_value               0                       # Request fanout histogram
system.membus.snoop_fanout::total                1302                       # Request fanout histogram
system.membus.reqLayer0.occupancy             1615500                       # Layer occupancy (ticks)
system.membus.reqLayer0.utilization               2.3                       # Layer utilization (%)
system.membus.respLayer1.occupancy            6555500                       # Layer occupancy (ticks)
system.membus.respLayer1.utilization              9.2                       # Layer utilization (%)
system.membus.power_state.pwrStateResidencyTicks::UNDEFINED     71207500                       # Cumulative time (in ticks) in various power states
system.tol2bus.trans_dist::ReadResp              2186                       # Transaction distribution
system.tol2bus.trans_dist::WritebackDirty            5                       # Transaction distribution
system.tol2bus.trans_dist::WritebackClean         1940                       # Transaction distribution
system.tol2bus.trans_dist::CleanEvict               9                       # Transaction distribution
system.tol2bus.trans_dist::ReadExReq              179                       # Transaction distribution
system.tol2bus.trans_dist::ReadExResp             179                       # Transaction distribution
system.tol2bus.trans_dist::ReadCleanReq          2006                       # Transaction distribution
system.tol2bus.trans_dist::ReadSharedReq          182                       # Transaction distribution
system.tol2bus.trans_dist::InvalidateReq           64                       # Transaction distribution
system.tol2bus.trans_dist::InvalidateResp           64                       # Transaction distribution
system.tol2bus.pkt_count_system.cpu.icache.mem_side::system.l2.cpu_side         5950                       # Packet count per connected master and slave (bytes)
system.tol2bus.pkt_count_system.cpu.dcache.mem_side::system.l2.cpu_side          864                       # Packet count per connected master and slave (bytes)
system.tol2bus.pkt_count::total                  6814                       # Packet count per connected master and slave (bytes)
system.tol2bus.pkt_size_system.cpu.icache.mem_side::system.l2.cpu_side       252416                       # Cumulative packet size per connected master and slave (bytes)
system.tol2bus.pkt_size_system.cpu.dcache.mem_side::system.l2.cpu_side        23424                       # Cumulative packet size per connected master and slave (bytes)
system.tol2bus.pkt_size::total                 275840                       # Cumulative packet size per connected master and slave (bytes)
system.tol2bus.snoops                               0                       # Total snoops (count)
system.tol2bus.snoopTraffic                         0                       # Total snoop traffic (bytes)
system.tol2bus.snoop_fanout::samples             2431                       # Request fanout histogram
system.tol2bus.snoop_fanout::mean            0.000823                       # Request fanout histogram
system.tol2bus.snoop_fanout::stdev           0.028677                       # Request fanout histogram
system.tol2bus.snoop_fanout::underflows             0      0.00%      0.00% # Request fanout histogram
system.tol2bus.snoop_fanout::0                   2429     99.92%     99.92% # Request fanout histogram
system.tol2bus.snoop_fanout::1                      2      0.08%    100.00% # Request fanout histogram
system.tol2bus.snoop_fanout::2                      0      0.00%    100.00% # Request fanout histogram
system.tol2bus.snoop_fanout::overflows              0      0.00%    100.00% # Request fanout histogram
system.tol2bus.snoop_fanout::min_value              0                       # Request fanout histogram
system.tol2bus.snoop_fanout::max_value              1                       # Request fanout histogram
system.tol2bus.snoop_fanout::total               2431                       # Request fanout histogram
system.tol2bus.reqLayer0.occupancy            4137500                       # Layer occupancy (ticks)
system.tol2bus.reqLayer0.utilization              5.8                       # Layer utilization (%)
system.tol2bus.respLayer1.occupancy            573500                       # Layer occupancy (ticks)
system.tol2bus.respLayer1.utilization             0.8                       # Layer utilization (%)
system.tol2bus.respLayer0.occupancy           3006000                       # Layer occupancy (ticks)
system.tol2bus.respLayer0.utilization             4.2                       # Layer utilization (%)
system.tol2bus.power_state.pwrStateResidencyTicks::UNDEFINED     71207500                       # Cumulative time (in ticks) in various power states
system.voltage_domain.voltage                       1                       # Voltage in Volts
system.clk_domain.clock                          1000                       # Clock period in ticks
system.l2.demand_hits::.cpu.inst                 1123                       # number of demand (read+write) hits
system.l2.demand_hits::.cpu.data                    5                       # number of demand (read+write) hits
system.l2.demand_hits::total                     1128                       # number of demand (read+write) hits
system.l2.overall_hits::.cpu.inst                1123                       # number of overall hits
system.l2.overall_hits::.cpu.data                   5                       # number of overall hits
system.l2.overall_hits::total                    1128                       # number of overall hits
system.l2.demand_misses::.cpu.inst                883                       # number of demand (read+write) misses
system.l2.demand_misses::.cpu.data                356                       # number of demand (read+write) misses
system.l2.demand_misses::total                   1239                       # number of demand (read+write) misses
system.l2.overall_misses::.cpu.inst               883                       # number of overall misses
system.l2.overall_misses::.cpu.data               356                       # number of overall misses
system.l2.overall_misses::total                  1239                       # number of overall misses
system.l2.demand_miss_latency::.cpu.inst     68538500                       # number of demand (read+write) miss cycles
system.l2.demand_miss_latency::.cpu.data     31286000                       # number of demand (read+write) miss cycles
system.l2.demand_miss_latency::total         99824500                       # number of demand (read+write) miss cycles
system.l2.overall_miss_latency::.cpu.inst     68538500                       # number of overall miss cycles
system.l2.overall_miss_latency::.cpu.data     31286000                       # number of overall miss cycles
system.l2.overall_miss_latency::total        99824500                       # number of overall miss cycles
system.l2.demand_accesses::.cpu.inst             2006                       # number of demand (read+write) accesses
system.l2.demand_accesses::.cpu.data              361                       # number of demand (read+write) accesses
system.l2.demand_accesses::total                 2367                       # number of demand (read+write) accesses
system.l2.overall_accesses::.cpu.inst            2006                       # number of overall (read+write) accesses
system.l2.overall_accesses::.cpu.data             361                       # number of overall (read+write) accesses
system.l2.overall_accesses::total                2367                       # number of overall (read+write) accesses
system.l2.demand_miss_rate::.cpu.inst        0.440179                       # miss rate for demand accesses
system.l2.demand_miss_rate::.cpu.data        0.986150                       # miss rate for demand accesses
system.l2.demand_miss_rate::total            0.523447                       # miss rate for demand accesses
system.l2.overall_miss_rate::.cpu.inst       0.440179                       # miss rate for overall accesses
system.l2.overall_miss_rate::.cpu.data       0.986150                       # miss rate for overall accesses
system.l2.overall_miss_rate::total           0.523447                       # miss rate for overall accesses
system.l2.demand_avg_miss_latency::.cpu.inst 77620.045300                       # average overall miss latency
system.l2.demand_avg_miss_latency::.cpu.data 87882.022472                       # average overall miss latency
system.l2.demand_avg_miss_latency::total 80568.603713                       # average overall miss latency
system.l2.overall_avg_miss_latency::.cpu.inst 77620.045300                       # average overall miss latency
system.l2.overall_avg_miss_latency::.cpu.data 87882.022472                       # average overall miss latency
system.l2.overall_avg_miss_latency::total 80568.603713                       # average overall miss latency
system.l2.blocked_cycles::no_mshrs                  0                       # number of cycles access was blocked
system.l2.blocked_cycles::no_targets                0                       # number of cycles access was blocked
system.l2.blocked::no_mshrs                         0                       # number of cycles access was blocked
system.l2.blocked::no_targets                       0                       # number of cycles access was blocked
system.l2.avg_blocked_cycles::no_mshrs            nan                       # average number of cycles each access was blocked
system.l2.avg_blocked_cycles::no_targets          nan                       # average number of cycles each access was blocked
system.l2.demand_mshr_misses::.cpu.inst           883                       # number of demand (read+write) MSHR misses
system.l2.demand_mshr_misses::.cpu.data           356                       # number of demand (read+write) MSHR misses
system.l2.demand_mshr_misses::total              1239                       # number of demand (read+write) MSHR misses
system.l2.overall_mshr_misses::.cpu.inst          883                       # number of overall MSHR misses
system.l2.overall_mshr_misses::.cpu.data          356                       # number of overall MSHR misses
system.l2.overall_mshr_misses::total             1239                       # number of overall MSHR misses
system.l2.demand_mshr_miss_latency::.cpu.inst     59728500                       # number of demand (read+write) MSHR miss cycles
system.l2.demand_mshr_miss_latency::.cpu.data     27726000                       # number of demand (read+write) MSHR miss cycles
system.l2.demand_mshr_miss_latency::total     87454500                       # number of demand (read+write) MSHR miss cycles
system.l2.overall_mshr_miss_latency::.cpu.inst     59728500                       # number of overall MSHR miss cycles
system.l2.overall_mshr_miss_latency::.cpu.data     27726000                       # number of overall MSHR miss cycles
system.l2.overall_mshr_miss_latency::total     87454500                       # number of overall MSHR miss cycles
system.l2.demand_mshr_miss_rate::.cpu.inst     0.440179                       # mshr miss rate for demand accesses
system.l2.demand_mshr_miss_rate::.cpu.data     0.986150                       # mshr miss rate for demand accesses
system.l2.demand_mshr_miss_rate::total       0.523447                       # mshr miss rate for demand accesses
system.l2.overall_mshr_miss_rate::.cpu.inst     0.440179                       # mshr miss rate for overall accesses
system.l2.overall_mshr_miss_rate::.cpu.data     0.986150                       # mshr miss rate for overall accesses
system.l2.overall_mshr_miss_rate::total      0.523447                       # mshr miss rate for overall accesses
system.l2.demand_avg_mshr_miss_latency::.cpu.inst 67642.695357                       # average overall mshr miss latency
system.l2.demand_avg_mshr_miss_latency::.cpu.data 77882.022472                       # average overall mshr miss latency
system.l2.demand_avg_mshr_miss_latency::total 70584.745763                       # average overall mshr miss latency
system.l2.overall_avg_mshr_miss_latency::.cpu.inst 67642.695357                       # average overall mshr miss latency
system.l2.overall_avg_mshr_miss_latency::.cpu.data 77882.022472                       # average overall mshr miss latency
system.l2.overall_avg_mshr_miss_latency::total 70584.745763                       # average overall mshr miss latency
system.l2.replacements                              0                       # number of replacements
system.l2.WritebackDirty_hits::.writebacks            5                       # number of WritebackDirty hits
system.l2.WritebackDirty_hits::total                5                       # number of WritebackDirty hits
system.l2.WritebackDirty_accesses::.writebacks            5                       # number of WritebackDirty accesses(hits+misses)
system.l2.WritebackDirty_accesses::total            5                       # number of WritebackDirty accesses(hits+misses)
system.l2.WritebackClean_hits::.writebacks         1938                       # number of WritebackClean hits
system.l2.WritebackClean_hits::total             1938                       # number of WritebackClean hits
system.l2.WritebackClean_accesses::.writebacks         1938                       # number of WritebackClean accesses(hits+misses)
system.l2.WritebackClean_accesses::total         1938                       # number of WritebackClean accesses(hits+misses)
system.l2.ReadExReq_hits::.cpu.data                 2                       # number of ReadExReq hits
system.l2.ReadExReq_hits::total                     2                       # number of ReadExReq hits
system.l2.ReadExReq_misses::.cpu.data             177                       # number of ReadExReq misses
system.l2.ReadExReq_misses::total                 177                       # number of ReadExReq misses
system.l2.ReadExReq_miss_latency::.cpu.data     15088500                       # number of ReadExReq miss cycles
system.l2.ReadExReq_miss_latency::total      15088500                       # number of ReadExReq miss cycles
system.l2.ReadExReq_accesses::.cpu.data           179                       # number of ReadExReq accesses(hits+misses)
system.l2.ReadExReq_accesses::total               179                       # number of ReadExReq accesses(hits+misses)
system.l2.ReadExReq_miss_rate::.cpu.data     0.988827                       # miss rate for ReadExReq accesses
system.l2.ReadExReq_miss_rate::total         0.988827                       # miss rate for ReadExReq accesses
system.l2.ReadExReq_avg_miss_latency::.cpu.data 85245.762712                       # average ReadExReq miss latency
system.l2.ReadExReq_avg_miss_latency::total 85245.762712                       # average ReadExReq miss latency
system.l2.ReadExReq_mshr_misses::.cpu.data          177                       # number of ReadExReq MSHR misses
system.l2.ReadExReq_mshr_misses::total            177                       # number of ReadExReq MSHR misses
system.l2.ReadExReq_mshr_miss_latency::.cpu.data     13318500                       # number of ReadExReq MSHR miss cycles
system.l2.ReadExReq_mshr_miss_latency::total     13318500                       # number of ReadExReq MSHR miss cycles
system.l2.ReadExReq_mshr_miss_rate::.cpu.data     0.988827                       # mshr miss rate for ReadExReq accesses
system.l2.ReadExReq_mshr_miss_rate::total     0.988827                       # mshr miss rate for ReadExReq accesses
system.l2.ReadExReq_avg_mshr_miss_latency::.cpu.data 75245.762712                       # average ReadExReq mshr miss latency
system.l2.ReadExReq_avg_mshr_miss_latency::total 75245.762712                       # average ReadExReq mshr miss latency
system.l2.ReadCleanReq_hits::.cpu.inst           1123                       # number of ReadCleanReq hits
system.l2.ReadCleanReq_hits::total               1123                       # number of ReadCleanReq hits
system.l2.ReadCleanReq_misses::.cpu.inst          883                       # number of ReadCleanReq misses
system.l2.ReadCleanReq_misses::total              883                       # number of ReadCleanReq misses
system.l2.ReadCleanReq_miss_latency::.cpu.inst     68538500                       # number of ReadCleanReq miss cycles
system.l2.ReadCleanReq_miss_latency::total     68538500                       # number of ReadCleanReq miss cycles
system.l2.ReadCleanReq_accesses::.cpu.inst         2006                       # number of ReadCleanReq accesses(hits+misses)
system.l2.ReadCleanReq_accesses::total           2006                       # number of ReadCleanReq accesses(hits+misses)
system.l2.ReadCleanReq_miss_rate::.cpu.inst     0.440179                       # miss rate for ReadCleanReq accesses
system.l2.ReadCleanReq_miss_rate::total      0.440179                       # miss rate for ReadCleanReq accesses
system.l2.ReadCleanReq_avg_miss_latency::.cpu.inst 77620.045300                       # average ReadCleanReq miss latency
system.l2.ReadCleanReq_avg_miss_latency::total 77620.045300                       # average ReadCleanReq miss latency
system.l2.ReadCleanReq_mshr_misses::.cpu.inst          883                       # number of ReadCleanReq MSHR misses
system.l2.ReadCleanReq_mshr_misses::total          883                       # number of ReadCleanReq MSHR misses
system.l2.ReadCleanReq_mshr_miss_latency::.cpu.inst     59728500                       # number of ReadCleanReq MSHR miss cycles
system.l2.ReadCleanReq_mshr_miss_latency::total     59728500                       # number of ReadCleanReq MSHR miss cycles
system.l2.ReadCleanReq_mshr_miss_rate::.cpu.inst     0.440179                       # mshr miss rate for ReadCleanReq accesses
system.l2.ReadCleanReq_mshr_miss_rate::total     0.440179                       # mshr miss rate for ReadCleanReq accesses
system.l2.ReadCleanReq_avg_mshr_miss_latency::.cpu.inst 67642.695357                       # average ReadCleanReq mshr miss latency
system.l2.ReadCleanReq_avg_mshr_miss_latency::total 67642.695357                       # average ReadCleanReq mshr miss latency
[...]
system.cpu.dcache.overall_misses::total          1413                       # number of overall misses
system.cpu.dcache.demand_miss_latency::.cpu.data     98792922                       # number of demand (read+write) miss cycles
system.cpu.dcache.demand_miss_latency::total     98792922                       # number of demand (read+write) miss cycles
system.cpu.dcache.overall_miss_latency::.cpu.data     98792922                       # number of overall miss cycles
system.cpu.dcache.overall_miss_latency::total     98792922                       # number of overall miss cycles
system.cpu.dcache.demand_accesses::.cpu.data        13168                       # number of demand (read+write) accesses
system.cpu.dcache.demand_accesses::total        13168                       # number of demand (read+write) accesses
system.cpu.dcache.overall_accesses::.cpu.data        13196                       # number of overall (read+write) accesses
system.cpu.dcache.overall_accesses::total        13196                       # number of overall (read+write) accesses
system.cpu.dcache.demand_miss_rate::.cpu.data     0.106926                       # miss rate for demand accesses
system.cpu.dcache.demand_miss_rate::total     0.106926                       # miss rate for demand accesses
system.cpu.dcache.overall_miss_rate::.cpu.data     0.107078                       # miss rate for overall accesses
system.cpu.dcache.overall_miss_rate::total     0.107078                       # miss rate for overall accesses
system.cpu.dcache.demand_avg_miss_latency::.cpu.data 70165.427557                       # average overall miss latency
system.cpu.dcache.demand_avg_miss_latency::total 70165.427557                       # average overall miss latency
system.cpu.dcache.overall_avg_miss_latency::.cpu.data 69917.142251                       # average overall miss latency
system.cpu.dcache.overall_avg_miss_latency::total 69917.142251                       # average overall miss latency
system.cpu.dcache.blocked_cycles::no_mshrs         3805                       # number of cycles access was blocked
system.cpu.dcache.blocked_cycles::no_targets            0                       # number of cycles access was blocked
system.cpu.dcache.blocked::no_mshrs               107                       # number of cycles access was blocked
system.cpu.dcache.blocked::no_targets               0                       # number of cycles access was blocked
system.cpu.dcache.avg_blocked_cycles::no_mshrs    35.560748                       # average number of cycles each access was blocked
system.cpu.dcache.avg_blocked_cycles::no_targets          nan                       # average number of cycles each access was blocked
system.cpu.dcache.writebacks::.writebacks            5                       # number of writebacks
system.cpu.dcache.writebacks::total                 5                       # number of writebacks
system.cpu.dcache.demand_mshr_hits::.cpu.data          989                       # number of demand (read+write) MSHR hits
system.cpu.dcache.demand_mshr_hits::total          989                       # number of demand (read+write) MSHR hits
system.cpu.dcache.overall_mshr_hits::.cpu.data          989                       # number of overall MSHR hits
system.cpu.dcache.overall_mshr_hits::total          989                       # number of overall MSHR hits
system.cpu.dcache.demand_mshr_misses::.cpu.data          419                       # number of demand (read+write) MSHR misses
system.cpu.dcache.demand_mshr_misses::total          419                       # number of demand (read+write) MSHR misses
system.cpu.dcache.overall_mshr_misses::.cpu.data          424                       # number of overall MSHR misses
system.cpu.dcache.overall_mshr_misses::total          424                       # number of overall MSHR misses
system.cpu.dcache.demand_mshr_miss_latency::.cpu.data     33330457                       # number of demand (read+write) MSHR miss cycles
system.cpu.dcache.demand_mshr_miss_latency::total     33330457                       # number of demand (read+write) MSHR miss cycles
system.cpu.dcache.overall_mshr_miss_latency::.cpu.data     33776457                       # number of overall MSHR miss cycles
system.cpu.dcache.overall_mshr_miss_latency::total     33776457                       # number of overall MSHR miss cycles
system.cpu.dcache.demand_mshr_miss_rate::.cpu.data     0.031820                       # mshr miss rate for demand accesses
system.cpu.dcache.demand_mshr_miss_rate::total     0.031820                       # mshr miss rate for demand accesses
system.cpu.dcache.overall_mshr_miss_rate::.cpu.data     0.032131                       # mshr miss rate for overall accesses
system.cpu.dcache.overall_mshr_miss_rate::total     0.032131                       # mshr miss rate for overall accesses
system.cpu.dcache.demand_avg_mshr_miss_latency::.cpu.data 79547.630072                       # average overall mshr miss latency
system.cpu.dcache.demand_avg_mshr_miss_latency::total 79547.630072                       # average overall mshr miss latency
system.cpu.dcache.overall_avg_mshr_miss_latency::.cpu.data 79661.455189                       # average overall mshr miss latency
system.cpu.dcache.overall_avg_mshr_miss_latency::total 79661.455189                       # average overall mshr miss latency
system.cpu.dcache.replacements                     14                       # number of replacements
system.cpu.dcache.ReadReq_hits::.cpu.data         6649                       # number of ReadReq hits
system.cpu.dcache.ReadReq_hits::total            6649                       # number of ReadReq hits
system.cpu.dcache.ReadReq_misses::.cpu.data          436                       # number of ReadReq misses
system.cpu.dcache.ReadReq_misses::total           436                       # number of ReadReq misses
system.cpu.dcache.ReadReq_miss_latency::.cpu.data     32750000                       # number of ReadReq miss cycles
system.cpu.dcache.ReadReq_miss_latency::total     32750000                       # number of ReadReq miss cycles
system.cpu.dcache.ReadReq_accesses::.cpu.data         7085                       # number of ReadReq accesses(hits+misses)
system.cpu.dcache.ReadReq_accesses::total         7085                       # number of ReadReq accesses(hits+misses)
system.cpu.dcache.ReadReq_miss_rate::.cpu.data     0.061538                       # miss rate for ReadReq accesses
system.cpu.dcache.ReadReq_miss_rate::total     0.061538                       # miss rate for ReadReq accesses
system.cpu.dcache.ReadReq_avg_miss_latency::.cpu.data 75114.678899                       # average ReadReq miss latency
system.cpu.dcache.ReadReq_avg_miss_latency::total 75114.678899                       # average ReadReq miss latency
system.cpu.dcache.ReadReq_mshr_hits::.cpu.data          260                       # number of ReadReq MSHR hits
system.cpu.dcache.ReadReq_mshr_hits::total          260                       # number of ReadReq MSHR hits
system.cpu.dcache.ReadReq_mshr_misses::.cpu.data          176                       # number of ReadReq MSHR misses
system.cpu.dcache.ReadReq_mshr_misses::total          176                       # number of ReadReq MSHR misses
system.cpu.dcache.ReadReq_mshr_miss_latency::.cpu.data     15974000                       # number of ReadReq MSHR miss cycles
system.cpu.dcache.ReadReq_mshr_miss_latency::total     15974000                       # number of ReadReq MSHR miss cycles
system.cpu.dcache.ReadReq_mshr_miss_rate::.cpu.data     0.024841                       # mshr miss rate for ReadReq accesses
system.cpu.dcache.ReadReq_mshr_miss_rate::total     0.024841                       # mshr miss rate for ReadReq accesses
system.cpu.dcache.ReadReq_avg_mshr_miss_latency::.cpu.data 90761.363636                       # average ReadReq mshr miss latency
system.cpu.dcache.ReadReq_avg_mshr_miss_latency::total 90761.363636                       # average ReadReq mshr miss latency
system.cpu.dcache.WriteReq_hits::.cpu.data         5111                       # number of WriteReq hits
system.cpu.dcache.WriteReq_hits::total           5111                       # number of WriteReq hits
system.cpu.dcache.WriteReq_misses::.cpu.data          912                       # number of WriteReq misses
system.cpu.dcache.WriteReq_misses::total          912                       # number of WriteReq misses
system.cpu.dcache.WriteReq_miss_latency::.cpu.data     64136457                       # number of WriteReq miss cycles
system.cpu.dcache.WriteReq_miss_latency::total     64136457                       # number of WriteReq miss cycles
system.cpu.dcache.WriteReq_accesses::.cpu.data         6023                       # number of WriteReq accesses(hits+misses)
system.cpu.dcache.WriteReq_accesses::total         6023                       # number of WriteReq accesses(hits+misses)
system.cpu.dcache.WriteReq_miss_rate::.cpu.data     0.151420                       # miss rate for WriteReq accesses
system.cpu.dcache.WriteReq_miss_rate::total     0.151420                       # miss rate for WriteReq accesses
system.cpu.dcache.WriteReq_avg_miss_latency::.cpu.data 70325.062500                       # average WriteReq miss latency
system.cpu.dcache.WriteReq_avg_miss_latency::total 70325.062500                       # average WriteReq miss latency
system.cpu.dcache.WriteReq_mshr_hits::.cpu.data          729                       # number of WriteReq MSHR hits
system.cpu.dcache.WriteReq_mshr_hits::total          729                       # number of WriteReq MSHR hits
system.cpu.dcache.WriteReq_mshr_misses::.cpu.data          183                       # number of WriteReq MSHR misses
system.cpu.dcache.WriteReq_mshr_misses::total          183                       # number of WriteReq MSHR misses
system.cpu.dcache.WriteReq_mshr_miss_latency::.cpu.data     15509992                       # number of WriteReq MSHR miss cycles
system.cpu.dcache.WriteReq_mshr_miss_latency::total     15509992                       # number of WriteReq MSHR miss cycles
system.cpu.dcache.WriteReq_mshr_miss_rate::.cpu.data     0.030384                       # mshr miss rate for WriteReq accesses
system.cpu.dcache.WriteReq_mshr_miss_rate::total     0.030384                       # mshr miss rate for WriteReq accesses
system.cpu.dcache.WriteReq_avg_mshr_miss_latency::.cpu.data 84754.054645                       # average WriteReq mshr miss latency
system.cpu.dcache.WriteReq_avg_mshr_miss_latency::total 84754.054645                       # average WriteReq mshr miss latency
system.cpu.dcache.SoftPFReq_hits::.cpu.data           23                       # number of SoftPFReq hits
system.cpu.dcache.SoftPFReq_hits::total            23                       # number of SoftPFReq hits
system.cpu.dcache.SoftPFReq_misses::.cpu.data            5                       # number of SoftPFReq misses
system.cpu.dcache.SoftPFReq_misses::total            5                       # number of SoftPFReq misses
system.cpu.dcache.SoftPFReq_accesses::.cpu.data           28                       # number of SoftPFReq accesses(hits+misses)
system.cpu.dcache.SoftPFReq_accesses::total           28                       # number of SoftPFReq accesses(hits+misses)
system.cpu.dcache.SoftPFReq_miss_rate::.cpu.data     0.178571                       # miss rate for SoftPFReq accesses
system.cpu.dcache.SoftPFReq_miss_rate::total     0.178571                       # miss rate for SoftPFReq accesses
system.cpu.dcache.SoftPFReq_mshr_misses::.cpu.data            5                       # number of SoftPFReq MSHR misses
system.cpu.dcache.SoftPFReq_mshr_misses::total            5                       # number of SoftPFReq MSHR misses
system.cpu.dcache.SoftPFReq_mshr_miss_latency::.cpu.data       446000                       # number of SoftPFReq MSHR miss cycles
system.cpu.dcache.SoftPFReq_mshr_miss_latency::total       446000                       # number of SoftPFReq MSHR miss cycles
system.cpu.dcache.SoftPFReq_mshr_miss_rate::.cpu.data     0.178571                       # mshr miss rate for SoftPFReq accesses
system.cpu.dcache.SoftPFReq_mshr_miss_rate::total     0.178571                       # mshr miss rate for SoftPFReq accesses
system.cpu.dcache.SoftPFReq_avg_mshr_miss_latency::.cpu.data        89200                       # average SoftPFReq mshr miss latency
system.cpu.dcache.SoftPFReq_avg_mshr_miss_latency::total        89200                       # average SoftPFReq mshr miss latency
system.cpu.dcache.WriteLineReq_misses::.cpu.data           60                       # number of WriteLineReq misses
system.cpu.dcache.WriteLineReq_misses::total           60                       # number of WriteLineReq misses
system.cpu.dcache.WriteLineReq_miss_latency::.cpu.data      1906465                       # number of WriteLineReq miss cycles
system.cpu.dcache.WriteLineReq_miss_latency::total      1906465                       # number of WriteLineReq miss cycles
system.cpu.dcache.WriteLineReq_accesses::.cpu.data           60                       # number of WriteLineReq accesses(hits+misses)
system.cpu.dcache.WriteLineReq_accesses::total           60                       # number of WriteLineReq accesses(hits+misses)
system.cpu.dcache.WriteLineReq_miss_rate::.cpu.data            1                       # miss rate for WriteLineReq accesses
system.cpu.dcache.WriteLineReq_miss_rate::total            1                       # miss rate for WriteLineReq accesses
system.cpu.dcache.WriteLineReq_avg_miss_latency::.cpu.data 31774.416667                       # average WriteLineReq miss latency
system.cpu.dcache.WriteLineReq_avg_miss_latency::total 31774.416667                       # average WriteLineReq miss latency
system.cpu.dcache.WriteLineReq_mshr_misses::.cpu.data           60                       # number of WriteLineReq MSHR misses
system.cpu.dcache.WriteLineReq_mshr_misses::total           60                       # number of WriteLineReq MSHR misses
system.cpu.dcache.WriteLineReq_mshr_miss_latency::.cpu.data      1846465                       # number of WriteLineReq MSHR miss cycles
system.cpu.dcache.WriteLineReq_mshr_miss_latency::total      1846465                       # number of WriteLineReq MSHR miss cycles
system.cpu.dcache.WriteLineReq_mshr_miss_rate::.cpu.data            1                       # mshr miss rate for WriteLineReq accesses
system.cpu.dcache.WriteLineReq_mshr_miss_rate::total            1                       # mshr miss rate for WriteLineReq accesses
system.cpu.dcache.WriteLineReq_avg_mshr_miss_latency::.cpu.data 30774.416667                       # average WriteLineReq mshr miss latency
system.cpu.dcache.WriteLineReq_avg_mshr_miss_latency::total 30774.416667                       # average WriteLineReq mshr miss latency
system.cpu.dcache.LoadLockedReq_hits::.cpu.data           35                       # number of LoadLockedReq hits
system.cpu.dcache.LoadLockedReq_hits::total           35                       # number of LoadLockedReq hits
system.cpu.dcache.LoadLockedReq_misses::.cpu.data            1                       # number of LoadLockedReq misses
system.cpu.dcache.LoadLockedReq_misses::total            1                       # number of LoadLockedReq misses
system.cpu.dcache.LoadLockedReq_miss_latency::.cpu.data        86500                       # number of LoadLockedReq miss cycles
system.cpu.dcache.LoadLockedReq_miss_latency::total        86500                       # number of LoadLockedReq miss cycles
system.cpu.dcache.LoadLockedReq_accesses::.cpu.data           36                       # number of LoadLockedReq accesses(hits+misses)
system.cpu.dcache.LoadLockedReq_accesses::total           36                       # number of LoadLockedReq accesses(hits+misses)
system.cpu.dcache.LoadLockedReq_miss_rate::.cpu.data     0.027778                       # miss rate for LoadLockedReq accesses
system.cpu.dcache.LoadLockedReq_miss_rate::total     0.027778                       # miss rate for LoadLockedReq accesses
system.cpu.dcache.LoadLockedReq_avg_miss_latency::.cpu.data        86500                       # average LoadLockedReq miss latency
system.cpu.dcache.LoadLockedReq_avg_miss_latency::total        86500                       # average LoadLockedReq miss latency
system.cpu.dcache.LoadLockedReq_mshr_misses::.cpu.data            1                       # number of LoadLockedReq MSHR misses
system.cpu.dcache.LoadLockedReq_mshr_misses::total            1                       # number of LoadLockedReq MSHR misses
system.cpu.dcache.LoadLockedReq_mshr_miss_latency::.cpu.data        85500                       # number of LoadLockedReq MSHR miss cycles
system.cpu.dcache.LoadLockedReq_mshr_miss_latency::total        85500                       # number of LoadLockedReq MSHR miss cycles
system.cpu.dcache.LoadLockedReq_mshr_miss_rate::.cpu.data     0.027778                       # mshr miss rate for LoadLockedReq accesses
system.cpu.dcache.LoadLockedReq_mshr_miss_rate::total     0.027778                       # mshr miss rate for LoadLockedReq accesses
system.cpu.dcache.LoadLockedReq_avg_mshr_miss_latency::.cpu.data        85500                       # average LoadLockedReq mshr miss latency
system.cpu.dcache.LoadLockedReq_avg_mshr_miss_latency::total        85500                       # average LoadLockedReq mshr miss latency
system.cpu.dcache.StoreCondReq_hits::.cpu.data           24                       # number of StoreCondReq hits
system.cpu.dcache.StoreCondReq_hits::total           24                       # number of StoreCondReq hits
system.cpu.dcache.StoreCondReq_accesses::.cpu.data           24                       # number of StoreCondReq accesses(hits+misses)
system.cpu.dcache.StoreCondReq_accesses::total           24                       # number of StoreCondReq accesses(hits+misses)
system.cpu.dcache.power_state.pwrStateResidencyTicks::UNDEFINED     71207500                       # Cumulative time (in ticks) in various power states
system.cpu.dcache.tags.tagsinuse           263.492570                       # Cycle average of tags in use
system.cpu.dcache.tags.total_refs               12267                       # Total number of references to valid blocks.
system.cpu.dcache.tags.sampled_refs               425                       # Sample count of references to valid blocks.
system.cpu.dcache.tags.avg_refs             28.863529                       # Average number of references to valid blocks.
system.cpu.dcache.tags.warmup_cycle            176500                       # Cycle when the warmup percentage was hit.
system.cpu.dcache.tags.occ_blocks::.cpu.data   263.492570                       # Average occupied blocks per requestor
system.cpu.dcache.tags.occ_percent::.cpu.data     0.257317                       # Average percentage of cache occupancy
system.cpu.dcache.tags.occ_percent::total     0.257317                       # Average percentage of cache occupancy
system.cpu.dcache.tags.occ_task_id_blocks::1024          411                       # Occupied blocks per task id
system.cpu.dcache.tags.age_task_id_blocks_1024::0           22                       # Occupied blocks per task id
system.cpu.dcache.tags.age_task_id_blocks_1024::1          389                       # Occupied blocks per task id
system.cpu.dcache.tags.occ_task_id_percent::1024     0.401367                       # Percentage of cache occupancy per task id
system.cpu.dcache.tags.tag_accesses             26937                       # Number of tag accesses
system.cpu.dcache.tags.data_accesses            26937                       # Number of data accesses
system.cpu.dcache.tags.power_state.pwrStateResidencyTicks::UNDEFINED     71207500                       # Cumulative time (in ticks) in various power states
system.cpu.power_state.pwrStateResidencyTicks::ON     71207500                       # Cumulative time (in ticks) in various power states

---------- End Simulation Statistics   ----------
