
---------- Begin Simulation Statistics ----------
final_tick                                  421497500                       # Number of ticks from beginning of simulation (restored from checkpoints and never reset)
host_inst_rate                                  90451                       # Simulator instruction rate (inst/s)
host_mem_usage                                 870892                       # Number of bytes of host memory used
host_op_rate                                   106509                       # Simulator op (including micro ops) rate (op/s)
host_seconds                                    11.06                       # Real time elapsed on the host
host_tick_rate                               38124096                       # Simulator tick rate (ticks/s)
sim_freq                                 1000000000000                       # Frequency of simulated ticks
sim_insts                                     1000002                       # Number of instructions simulated
sim_ops                                       1177555                       # Number of ops (including micro ops) simulated
sim_seconds                                  0.000421                       # Number of seconds simulated
sim_ticks                                   421497500                       # Number of ticks simulated
system.cpu.branchPred.BTBCorrect                    0                       # Number of correct BTB predictions (this stat may not work properly.
system.cpu.branchPred.BTBHitPct             96.170359                       # BTB Hit Percentage
system.cpu.branchPred.BTBHits                  112226                       # Number of BTB hits
system.cpu.branchPred.BTBLookups               116695                       # Number of BTB lookups
system.cpu.branchPred.RASInCorrect                  5                       # Number of incorrect RAS predictions.
system.cpu.branchPred.condIncorrect              7302                       # Number of conditional branches incorrect
system.cpu.branchPred.condPredicted            209285                       # Number of conditional branches predicted
system.cpu.branchPred.indirectHits               1209                       # Number of indirect target hits.
system.cpu.branchPred.indirectLookups            2296                       # Number of indirect predictor lookups.
system.cpu.branchPred.indirectMisses             1087                       # Number of indirect misses.
system.cpu.branchPred.lookups                  286699                       # Number of BP lookups
system.cpu.branchPred.usedRAS                   30018                       # Number of times the RAS was used to get a target.
system.cpu.branchPredindirectMispredicted          304                       # Number of mispredicted indirect branches.
system.cpu.cc_regfile_reads                    384903                       # number of cc regfile reads
system.cpu.cc_regfile_writes                   378600                       # number of cc regfile writes
system.cpu.commit.amos                              0                       # Number of atomic instructions committed
system.cpu.commit.branchMispredicts              5859                       # The number of times a branch was mispredicted
system.cpu.commit.branches                     236171                       # Number of branches committed
system.cpu.commit.bw_lim_events                 72820                       # number cycles where commit BW limit reached
system.cpu.commit.commitNonSpecStalls              75                       # The number of times commit has been forced to stall to communicate backwards
system.cpu.commit.commitSquashedInsts          125922                       # The number of squashed insts skipped by commit
system.cpu.commit.committedInsts              1000964                       # Number of instructions committed
system.cpu.commit.committedOps                1178517                       # Number of ops (including micro ops) committed
system.cpu.commit.committed_per_cycle::samples       702967                       # Number of insts commited each cycle
system.cpu.commit.committed_per_cycle::mean     1.676490                       # Number of insts commited each cycle
system.cpu.commit.committed_per_cycle::stdev     2.591921                       # Number of insts commited each cycle
system.cpu.commit.committed_per_cycle::underflows            0      0.00%      0.00% # Number of insts commited each cycle
system.cpu.commit.committed_per_cycle::0       362542     51.57%     51.57% # Number of insts commited each cycle
system.cpu.commit.committed_per_cycle::1       132948     18.91%     70.49% # Number of insts commited each cycle
system.cpu.commit.committed_per_cycle::2        47092      6.70%     77.18% # Number of insts commited each cycle
system.cpu.commit.committed_per_cycle::3        41146      5.85%     83.04% # Number of insts commited each cycle
system.cpu.commit.committed_per_cycle::4        13143      1.87%     84.91% # Number of insts commited each cycle
system.cpu.commit.committed_per_cycle::5        13467      1.92%     86.82% # Number of insts commited each cycle
system.cpu.commit.committed_per_cycle::6        13183      1.88%     88.70% # Number of insts commited each cycle
system.cpu.commit.committed_per_cycle::7         6626      0.94%     89.64% # Number of insts commited each cycle
system.cpu.commit.committed_per_cycle::8        72820     10.36%    100.00% # Number of insts commited each cycle
system.cpu.commit.committed_per_cycle::overflows            0      0.00%    100.00% # Number of insts commited each cycle
system.cpu.commit.committed_per_cycle::min_value            0                       # Number of insts commited each cycle
system.cpu.commit.committed_per_cycle::max_value            8                       # Number of insts commited each cycle
system.cpu.commit.committed_per_cycle::total       702967                       # Number of insts commited each cycle
system.cpu.commit.fp_insts                          0                       # Number of committed floating point instructions.
system.cpu.commit.function_calls                25599                       # Number of function calls committed.
system.cpu.commit.int_insts                   1058462                       # Number of committed integer instructions.
system.cpu.commit.loads                        219653                       # Number of loads committed
system.cpu.commit.membars                          58                       # Number of memory barriers committed
system.cpu.commit.op_class_0::No_OpClass           85      0.01%      0.01% # Class of committed instruction
system.cpu.commit.op_class_0::IntAlu           803955     68.22%     68.22% # Class of committed instruction
system.cpu.commit.op_class_0::IntMult              43      0.00%     68.23% # Class of committed instruction
system.cpu.commit.op_class_0::IntDiv                8      0.00%     68.23% # Class of committed instruction
system.cpu.commit.op_class_0::FloatAdd              3      0.00%     68.23% # Class of committed instruction
system.cpu.commit.op_class_0::FloatCmp              6      0.00%     68.23% # Class of committed instruction
system.cpu.commit.op_class_0::FloatCvt             24      0.00%     68.23% # Class of committed instruction
system.cpu.commit.op_class_0::FloatMult             1      0.00%     68.23% # Class of committed instruction
system.cpu.commit.op_class_0::FloatMultAcc            0      0.00%     68.23% # Class of committed instruction
system.cpu.commit.op_class_0::FloatDiv              1      0.00%     68.23% # Class of committed instruction
system.cpu.commit.op_class_0::FloatMisc            32      0.00%     68.23% # Class of committed instruction
system.cpu.commit.op_class_0::FloatSqrt             0      0.00%     68.23% # Class of committed instruction
system.cpu.commit.op_class_0::SimdAdd             211      0.02%     68.25% # Class of committed instruction
system.cpu.commit.op_class_0::SimdAddAcc            0      0.00%     68.25% # Class of committed instruction
system.cpu.commit.op_class_0::SimdAlu             346      0.03%     68.28% # Class of committed instruction
system.cpu.commit.op_class_0::SimdCmp             340      0.03%     68.31% # Class of committed instruction
system.cpu.commit.op_class_0::SimdCvt               4      0.00%     68.31% # Class of committed instruction
system.cpu.commit.op_class_0::SimdMisc            252      0.02%     68.33% # Class of committed instruction
system.cpu.commit.op_class_0::SimdMult              0      0.00%     68.33% # Class of committed instruction
system.cpu.commit.op_class_0::SimdMultAcc            0      0.00%     68.33% # Class of committed instruction
system.cpu.commit.op_class_0::SimdShift             0      0.00%     68.33% # Class of committed instruction
system.cpu.commit.op_class_0::SimdShiftAcc            0      0.00%     68.33% # Class of committed instruction
system.cpu.commit.op_class_0::SimdDiv               0      0.00%     68.33% # Class of committed instruction
system.cpu.commit.op_class_0::SimdSqrt              0      0.00%     68.33% # Class of committed instruction
system.cpu.commit.op_class_0::SimdFloatAdd            0      0.00%     68.33% # Class of committed instruction
system.cpu.commit.op_class_0::SimdFloatAlu            0      0.00%     68.33% # Class of committed instruction
system.cpu.commit.op_class_0::SimdFloatCmp            0      0.00%     68.33% # Class of committed instruction
system.cpu.commit.op_class_0::SimdFloatCvt            0      0.00%     68.33% # Class of committed instruction
system.cpu.commit.op_class_0::SimdFloatDiv            0      0.00%     68.33% # Class of committed instruction
system.cpu.commit.op_class_0::SimdFloatMisc            0      0.00%     68.33% # Class of committed instruction
system.cpu.commit.op_class_0::SimdFloatMult            0      0.00%     68.33% # Class of committed instruction
system.cpu.commit.op_class_0::SimdFloatMultAcc            0      0.00%     68.33% # Class of committed instruction
system.cpu.commit.op_class_0::SimdFloatSqrt            0      0.00%     68.33% # Class of committed instruction
system.cpu.commit.op_class_0::SimdReduceAdd            0      0.00%     68.33% # Class of committed instruction
system.cpu.commit.op_class_0::SimdReduceAlu            0      0.00%     68.33% # Class of committed instruction
system.cpu.commit.op_class_0::SimdReduceCmp            0      0.00%     68.33% # Class of committed instruction
system.cpu.commit.op_class_0::SimdFloatReduceAdd            0      0.00%     68.33% # Class of committed instruction
system.cpu.commit.op_class_0::SimdFloatReduceCmp            0      0.00%     68.33% # Class of committed instruction
system.cpu.commit.op_class_0::SimdAes               0      0.00%     68.33% # Class of committed instruction
system.cpu.commit.op_class_0::SimdAesMix            0      0.00%     68.33% # Class of committed instruction
system.cpu.commit.op_class_0::SimdSha1Hash            0      0.00%     68.33% # Class of committed instruction
system.cpu.commit.op_class_0::SimdSha1Hash2            0      0.00%     68.33% # Class of committed instruction
system.cpu.commit.op_class_0::SimdSha256Hash            0      0.00%     68.33% # Class of committed instruction
system.cpu.commit.op_class_0::SimdSha256Hash2            0      0.00%     68.33% # Class of committed instruction
system.cpu.commit.op_class_0::SimdShaSigma2            0      0.00%     68.33% # Class of committed instruction
system.cpu.commit.op_class_0::SimdShaSigma3            0      0.00%     68.33% # Class of committed instruction
system.cpu.commit.op_class_0::SimdPredAlu            0      0.00%     68.33% # Class of committed instruction
system.cpu.commit.op_class_0::MemRead          219653     18.64%     86.97% # Class of committed instruction
system.cpu.commit.op_class_0::MemWrite         153553     13.03%    100.00% # Class of committed instruction
system.cpu.commit.op_class_0::FloatMemRead            0      0.00%    100.00% # Class of committed instruction
system.cpu.commit.op_class_0::FloatMemWrite            0      0.00%    100.00% # Class of committed instruction
system.cpu.commit.op_class_0::IprAccess             0      0.00%    100.00% # Class of committed instruction
system.cpu.commit.op_class_0::InstPrefetch            0      0.00%    100.00% # Class of committed instruction
system.cpu.commit.op_class_0::total           1178517                       # Class of committed instruction
system.cpu.commit.refs                         373206                       # Number of memory references committed
system.cpu.commit.swp_count                         0                       # Number of s/w prefetches committed
system.cpu.commit.vec_insts                      2565                       # Number of committed Vector instructions.
system.cpu.committedInsts                     1000002                       # Number of Instructions Simulated
system.cpu.committedOps                       1177555                       # Number of Ops (including micro ops) Simulated
system.cpu.cpi                               0.842994                       # CPI: Cycles Per Instruction
system.cpu.cpi_total                         0.842994                       # CPI: Total CPI of All Threads
system.cpu.decode.BlockedCycles                341182                       # Number of cycles decode is blocked
system.cpu.decode.BranchMispred                  1474                       # Number of times decode detected a branch misprediction
system.cpu.decode.BranchResolved               109453                       # Number of times decode resolved a branch
system.cpu.decode.DecodedInsts                1356881                       # Number of instructions handled by decode
system.cpu.decode.IdleCycles                   144943                       # Number of cycles decode is idle
system.cpu.decode.RunCycles                    199828                       # Number of cycles decode is running
system.cpu.decode.SquashCycles                   6007                       # Number of cycles decode is squashing
system.cpu.decode.SquashedInsts                  4999                       # Number of squashed instructions handled by decode
system.cpu.decode.UnblockCycles                 30010                       # Number of cycles decode is unblocking
system.cpu.dtb.accesses                             0                       # DTB accesses
system.cpu.dtb.align_faults                         0                       # Number of TLB faults due to alignment restrictions
system.cpu.dtb.domain_faults                        0                       # Number of TLB faults due to domain restrictions
system.cpu.dtb.flush_entries                        0                       # Number of entries that have been flushed from TLB
system.cpu.dtb.flush_tlb                            0                       # Number of times complete TLB was flushed
system.cpu.dtb.flush_tlb_asid                       0                       # Number of times TLB was flushed by ASID
system.cpu.dtb.flush_tlb_mva                        0                       # Number of times TLB was flushed by MVA
system.cpu.dtb.flush_tlb_mva_asid                   0                       # Number of times TLB was flushed by MVA & ASID
system.cpu.dtb.hits                                 0                       # DTB hits
system.cpu.dtb.inst_accesses                        0                       # ITB inst accesses
system.cpu.dtb.inst_hits                            0                       # ITB inst hits
system.cpu.dtb.inst_misses                          0                       # ITB inst misses
system.cpu.dtb.misses                               0                       # DTB misses
system.cpu.dtb.perms_faults                         0                       # Number of TLB faults due to permissions restrictions
system.cpu.dtb.prefetch_faults                      0                       # Number of TLB faults due to prefetch
system.cpu.dtb.read_accesses                        0                       # DTB read accesses
system.cpu.dtb.read_hits                            0                       # DTB read hits
system.cpu.dtb.read_misses                          0                       # DTB read misses
system.cpu.dtb.stage2_mmu.stage2_tlb.accesses            0                       # DTB accesses
system.cpu.dtb.stage2_mmu.stage2_tlb.align_faults            0                       # Number of TLB faults due to alignment restrictions
system.cpu.dtb.stage2_mmu.stage2_tlb.domain_faults            0                       # Number of TLB faults due to domain restrictions
system.cpu.dtb.stage2_mmu.stage2_tlb.flush_entries            0                       # Number of entries that have been flushed from TLB
system.cpu.dtb.stage2_mmu.stage2_tlb.flush_tlb            0                       # Number of times complete TLB was flushed
system.cpu.dtb.stage2_mmu.stage2_tlb.flush_tlb_asid            0                       # Number of times TLB was flushed by ASID
system.cpu.dtb.stage2_mmu.stage2_tlb.flush_tlb_mva            0                       # Number of times TLB was flushed by MVA
system.cpu.dtb.stage2_mmu.stage2_tlb.flush_tlb_mva_asid            0                       # Number of times TLB was flushed by MVA & ASID
system.cpu.dtb.stage2_mmu.stage2_tlb.hits            0                       # DTB hits
system.cpu.dtb.stage2_mmu.stage2_tlb.inst_accesses            0                       # ITB inst accesses
system.cpu.dtb.stage2_mmu.stage2_tlb.inst_hits            0                       # ITB inst hits
system.cpu.dtb.stage2_mmu.stage2_tlb.inst_misses            0                       # ITB inst misses
system.cpu.dtb.stage2_mmu.stage2_tlb.misses            0                       # DTB misses
system.cpu.dtb.stage2_mmu.stage2_tlb.perms_faults            0                       # Number of TLB faults due to permissions restrictions
system.cpu.dtb.stage2_mmu.stage2_tlb.prefetch_faults            0                       # Number of TLB faults due to prefetch
system.cpu.dtb.stage2_mmu.stage2_tlb.read_accesses            0                       # DTB read accesses
system.cpu.dtb.stage2_mmu.stage2_tlb.read_hits            0                       # DTB read hits
system.cpu.dtb.stage2_mmu.stage2_tlb.read_misses            0                       # DTB read misses
system.cpu.dtb.stage2_mmu.stage2_tlb.walker.walkRequestOrigin_Requested::Data            0                       # Table walker requests started/completed, data/inst
system.cpu.dtb.stage2_mmu.stage2_tlb.walker.walkRequestOrigin_Requested::Inst            0                       # Table walker requests started/completed, data/inst
system.cpu.dtb.stage2_mmu.stage2_tlb.walker.walkRequestOrigin_Requested::total            0                       # Table walker requests started/completed, data/inst
system.cpu.dtb.stage2_mmu.stage2_tlb.walker.walkRequestOrigin_Completed::Data            0                       # Table walker requests started/completed, data/inst
system.cpu.dtb.stage2_mmu.stage2_tlb.walker.walkRequestOrigin_Completed::Inst            0                       # Table walker requests started/completed, data/inst
system.cpu.dtb.stage2_mmu.stage2_tlb.walker.walkRequestOrigin_Completed::total            0                       # Table walker requests started/completed, data/inst
system.cpu.dtb.stage2_mmu.stage2_tlb.walker.walkRequestOrigin::total            0                       # Table walker requests started/completed, data/inst
system.cpu.dtb.stage2_mmu.stage2_tlb.walker.walks            0                       # Table walker walks requested
system.cpu.dtb.stage2_mmu.stage2_tlb.write_accesses            0                       # DTB write accesses
system.cpu.dtb.stage2_mmu.stage2_tlb.write_hits            0                       # DTB write hits
system.cpu.dtb.stage2_mmu.stage2_tlb.write_misses            0                       # DTB write misses
system.cpu.dtb.walker.walkRequestOrigin_Requested::Data            0                       # Table walker requests started/completed, data/inst
system.cpu.dtb.walker.walkRequestOrigin_Requested::Inst            0                       # Table walker requests started/completed, data/inst
system.cpu.dtb.walker.walkRequestOrigin_Requested::total            0                       # Table walker requests started/completed, data/inst
system.cpu.dtb.walker.walkRequestOrigin_Completed::Data            0                       # Table walker requests started/completed, data/inst
system.cpu.dtb.walker.walkRequestOrigin_Completed::Inst            0                       # Table walker requests started/completed, data/inst
system.cpu.dtb.walker.walkRequestOrigin_Completed::total            0                       # Table walker requests started/completed, data/inst
system.cpu.dtb.walker.walkRequestOrigin::total            0                       # Table walker requests started/completed, data/inst
system.cpu.dtb.walker.walks                         0                       # Table walker walks requested
system.cpu.dtb.write_accesses                       0                       # DTB write accesses
system.cpu.dtb.write_hits                           0                       # DTB write hits
system.cpu.dtb.write_misses                         0                       # DTB write misses
system.cpu.fetch.Branches                      286699                       # Number of branches that fetch encountered
system.cpu.fetch.CacheLines                    185582                       # Number of cache lines fetched
system.cpu.fetch.Cycles                        493725                       # Number of cycles fetch has run and was not squashing or blocked
system.cpu.fetch.IcacheSquashes                  3231                       # Number of outstanding Icache misses that were squashed
system.cpu.fetch.IcacheWaitRetryStallCycles           62                       # Number of stall cycles due to full MSHR
system.cpu.fetch.Insts                        1208836                       # Number of instructions fetch has processed
system.cpu.fetch.MiscStallCycles                    4                       # Number of cycles fetch has spent waiting on interrupts, or bad addresses, or out of MSHRs
system.cpu.fetch.SquashCycles                   14900                       # Number of cycles fetch has spent squashing
system.cpu.fetch.branchRate                  0.340095                       # Number of branch fetches per cycle
system.cpu.fetch.icacheStallCycles             220729                       # Number of cycles fetch is stalled on an Icache miss
system.cpu.fetch.predictedBranches             143453                       # Number of branches that fetch has predicted taken
system.cpu.fetch.rate                        1.433976                       # Number of inst fetches per cycle
system.cpu.fetch.rateDist::samples             721970                       # Number of instructions fetched each cycle (Total)
system.cpu.fetch.rateDist::mean              1.958991                       # Number of instructions fetched each cycle (Total)
system.cpu.fetch.rateDist::stdev             2.886580                       # Number of instructions fetched each cycle (Total)
system.cpu.fetch.rateDist::underflows               0      0.00%      0.00% # Number of instructions fetched each cycle (Total)
system.cpu.fetch.rateDist::0                   427860     59.26%     59.26% # Number of instructions fetched each cycle (Total)
system.cpu.fetch.rateDist::1                    35365      4.90%     64.16% # Number of instructions fetched each cycle (Total)
system.cpu.fetch.rateDist::2                    44086      6.11%     70.27% # Number of instructions fetched each cycle (Total)
system.cpu.fetch.rateDist::3                    36815      5.10%     75.37% # Number of instructions fetched each cycle (Total)
system.cpu.fetch.rateDist::4                    20622      2.86%     78.22% # Number of instructions fetched each cycle (Total)
system.cpu.fetch.rateDist::5                    36190      5.01%     83.24% # Number of instructions fetched each cycle (Total)
system.cpu.fetch.rateDist::6                    16356      2.27%     85.50% # Number of instructions fetched each cycle (Total)
system.cpu.fetch.rateDist::7                    18631      2.58%     88.08% # Number of instructions fetched each cycle (Total)
system.cpu.fetch.rateDist::8                    86045     11.92%    100.00% # Number of instructions fetched each cycle (Total)
system.cpu.fetch.rateDist::overflows                0      0.00%    100.00% # Number of instructions fetched each cycle (Total)
system.cpu.fetch.rateDist::min_value                0                       # Number of instructions fetched each cycle (Total)
system.cpu.fetch.rateDist::max_value                8                       # Number of instructions fetched each cycle (Total)
system.cpu.fetch.rateDist::total               721970                       # Number of instructions fetched each cycle (Total)
system.cpu.icache.prefetcher.num_hwpf_issued         2930                       # number of hwpf issued
system.cpu.icache.prefetcher.pfBufferHit           84                       # number of redundant prefetches already in prefetch queue
system.cpu.icache.prefetcher.pfIdentified         3132                       # number of prefetch candidates identified
system.cpu.icache.prefetcher.pfInCache              0                       # number of redundant prefetches already in cache/mshr dropped
system.cpu.icache.prefetcher.pfRemovedFull            2                       # number of prefetches dropped due to prefetch queue size
system.cpu.icache.prefetcher.pfSpanPage          1907                       # number of prefetches that crossed the page
system.cpu.idleCycles                          121026                       # Total number of cycles that the CPU has spent unscheduled due to idling
system.cpu.iew.branchMispredicts                 6872                       # Number of branch mispredicts detected at execute
system.cpu.iew.exec_branches                   248419                       # Number of branches executed
system.cpu.iew.exec_nop                          1131                       # number of nop insts executed
system.cpu.iew.exec_rate                     1.487116                       # Inst execution rate
system.cpu.iew.exec_refs                       396822                       # number of memory reference insts executed
system.cpu.iew.exec_stores                     160409                       # Number of stores executed
system.cpu.iew.exec_swp                             0                       # number of swp insts executed
system.cpu.iew.iewBlockCycles                   14235                       # Number of cycles IEW is blocking
system.cpu.iew.iewDispLoadInsts                244035                       # Number of dispatched load instructions
system.cpu.iew.iewDispNonSpecInsts                137                       # Number of dispatched non-speculative instructions
system.cpu.iew.iewDispSquashedInsts              1604                       # Number of squashed instructions skipped by dispatch
system.cpu.iew.iewDispStoreInsts               168447                       # Number of dispatched store instructions
system.cpu.iew.iewDispatchedInsts             1305122                       # Number of instructions dispatched to IQ
system.cpu.iew.iewExecLoadInsts                236413                       # Number of load instructions executed
system.cpu.iew.iewExecSquashedInsts             11236                       # Number of squashed instructions skipped in execute
system.cpu.iew.iewExecutedInsts               1253633                       # Number of executed instructions
system.cpu.iew.iewIQFullEvents                     41                       # Number of times the IQ has become full, causing a stall
system.cpu.iew.iewIdleCycles                        0                       # Number of cycles IEW is idle
system.cpu.iew.iewLSQFullEvents                  2553                       # Number of times the LSQ has become full, causing a stall
system.cpu.iew.iewSquashCycles                   6007                       # Number of cycles IEW is squashing
system.cpu.iew.iewUnblockCycles                  2609                       # Number of cycles IEW is unblocking
system.cpu.iew.lsq.thread0.blockedLoads             0                       # Number of blocked loads due to partial load-store forwarding
system.cpu.iew.lsq.thread0.cacheBlocked           309                       # Number of times an access to memory failed due to the cache being blocked
system.cpu.iew.lsq.thread0.forwLoads             5251                       # Number of loads that had data forwarded from stores
system.cpu.iew.lsq.thread0.ignoredResponses           54                       # Number of memory responses ignored because the instruction is squashed
system.cpu.iew.lsq.thread0.invAddrLoads             0                       # Number of loads ignored due to an invalid address
system.cpu.iew.lsq.thread0.invAddrSwpfs             0                       # Number of software prefetches ignored due to an invalid address
system.cpu.iew.lsq.thread0.memOrderViolation          128                       # Number of memory ordering violations
system.cpu.iew.lsq.thread0.rescheduledLoads         2857                       # Number of loads that were rescheduled
system.cpu.iew.lsq.thread0.squashedLoads        24373                       # Number of loads squashed
system.cpu.iew.lsq.thread0.squashedStores        14889                       # Number of stores squashed
system.cpu.iew.memOrderViolationEvents            128                       # Number of memory order violations
system.cpu.iew.predictedNotTakenIncorrect         4637                       # Number of branches that were predicted not taken incorrectly
system.cpu.iew.predictedTakenIncorrect           2235                       # Number of branches that were predicted taken incorrectly
system.cpu.iew.wb_consumers                   1192394                       # num instructions consuming a value
system.cpu.iew.wb_count                       1242140                       # cumulative count of insts written-back
system.cpu.iew.wb_fanout                     0.561039                       # average fanout of values written-back
system.cpu.iew.wb_producers                    668980                       # num instructions producing a value
system.cpu.iew.wb_rate                       1.473483                       # insts written-back per cycle
system.cpu.iew.wb_sent                        1246397                       # cumulative count of insts sent to commit
system.cpu.int_regfile_reads                  1403314                       # number of integer regfile reads
system.cpu.int_regfile_writes                  900408                       # number of integer regfile writes
system.cpu.ipc                               1.186248                       # IPC: Instructions Per Cycle
system.cpu.ipc_total                         1.186248                       # IPC: Total IPC of All Threads
system.cpu.iq.FU_type_0::No_OpClass                88      0.01%      0.01% # Type of FU issued
system.cpu.iq.FU_type_0::IntAlu                861927     68.14%     68.15% # Type of FU issued
system.cpu.iq.FU_type_0::IntMult                   44      0.00%     68.15% # Type of FU issued
system.cpu.iq.FU_type_0::IntDiv                    13      0.00%     68.15% # Type of FU issued
system.cpu.iq.FU_type_0::FloatAdd                   6      0.00%     68.16% # Type of FU issued
system.cpu.iq.FU_type_0::FloatCmp                   6      0.00%     68.16% # Type of FU issued
system.cpu.iq.FU_type_0::FloatCvt                  27      0.00%     68.16% # Type of FU issued
system.cpu.iq.FU_type_0::FloatMult                  1      0.00%     68.16% # Type of FU issued
system.cpu.iq.FU_type_0::FloatMultAcc               0      0.00%     68.16% # Type of FU issued
system.cpu.iq.FU_type_0::FloatDiv                   1      0.00%     68.16% # Type of FU issued
system.cpu.iq.FU_type_0::FloatMisc                 42      0.00%     68.16% # Type of FU issued
system.cpu.iq.FU_type_0::FloatSqrt                  0      0.00%     68.16% # Type of FU issued
system.cpu.iq.FU_type_0::SimdAdd                  228      0.02%     68.18% # Type of FU issued
system.cpu.iq.FU_type_0::SimdAddAcc                 0      0.00%     68.18% # Type of FU issued
system.cpu.iq.FU_type_0::SimdAlu                  365      0.03%     68.21% # Type of FU issued
system.cpu.iq.FU_type_0::SimdCmp                  352      0.03%     68.24% # Type of FU issued
system.cpu.iq.FU_type_0::SimdCvt                    4      0.00%     68.24% # Type of FU issued
system.cpu.iq.FU_type_0::SimdMisc                 266      0.02%     68.26% # Type of FU issued
system.cpu.iq.FU_type_0::SimdMult                   0      0.00%     68.26% # Type of FU issued
system.cpu.iq.FU_type_0::SimdMultAcc                0      0.00%     68.26% # Type of FU issued
system.cpu.iq.FU_type_0::SimdShift                  0      0.00%     68.26% # Type of FU issued
system.cpu.iq.FU_type_0::SimdShiftAcc               0      0.00%     68.26% # Type of FU issued
system.cpu.iq.FU_type_0::SimdDiv                    0      0.00%     68.26% # Type of FU issued
system.cpu.iq.FU_type_0::SimdSqrt                   0      0.00%     68.26% # Type of FU issued
system.cpu.iq.FU_type_0::SimdFloatAdd               0      0.00%     68.26% # Type of FU issued
system.cpu.iq.FU_type_0::SimdFloatAlu               0      0.00%     68.26% # Type of FU issued
system.cpu.iq.FU_type_0::SimdFloatCmp               0      0.00%     68.26% # Type of FU issued
system.cpu.iq.FU_type_0::SimdFloatCvt               0      0.00%     68.26% # Type of FU issued
system.cpu.iq.FU_type_0::SimdFloatDiv               0      0.00%     68.26% # Type of FU issued
system.cpu.iq.FU_type_0::SimdFloatMisc              0      0.00%     68.26% # Type of FU issued
system.cpu.iq.FU_type_0::SimdFloatMult              0      0.00%     68.26% # Type of FU issued
system.cpu.iq.FU_type_0::SimdFloatMultAcc            0      0.00%     68.26% # Type of FU issued
system.cpu.iq.FU_type_0::SimdFloatSqrt              0      0.00%     68.26% # Type of FU issued
system.cpu.iq.FU_type_0::SimdReduceAdd              0      0.00%     68.26% # Type of FU issued
system.cpu.iq.FU_type_0::SimdReduceAlu              0      0.00%     68.26% # Type of FU issued
system.cpu.iq.FU_type_0::SimdReduceCmp              0      0.00%     68.26% # Type of FU issued
system.cpu.iq.FU_type_0::SimdFloatReduceAdd            0      0.00%     68.26% # Type of FU issued
system.cpu.iq.FU_type_0::SimdFloatReduceCmp            0      0.00%     68.26% # Type of FU issued
system.cpu.iq.FU_type_0::SimdAes                    0      0.00%     68.26% # Type of FU issued
system.cpu.iq.FU_type_0::SimdAesMix                 0      0.00%     68.26% # Type of FU issued
system.cpu.iq.FU_type_0::SimdSha1Hash               0      0.00%     68.26% # Type of FU issued
system.cpu.iq.FU_type_0::SimdSha1Hash2              0      0.00%     68.26% # Type of FU issued
system.cpu.iq.FU_type_0::SimdSha256Hash             0      0.00%     68.26% # Type of FU issued
system.cpu.iq.FU_type_0::SimdSha256Hash2            0      0.00%     68.26% # Type of FU issued
system.cpu.iq.FU_type_0::SimdShaSigma2              0      0.00%     68.26% # Type of FU issued
system.cpu.iq.FU_type_0::SimdShaSigma3              0      0.00%     68.26% # Type of FU issued
system.cpu.iq.FU_type_0::SimdPredAlu                0      0.00%     68.26% # Type of FU issued
system.cpu.iq.FU_type_0::MemRead               239028     18.90%     87.15% # Type of FU issued
system.cpu.iq.FU_type_0::MemWrite              162479     12.85%    100.00% # Type of FU issued
system.cpu.iq.FU_type_0::FloatMemRead               0      0.00%    100.00% # Type of FU issued
system.cpu.iq.FU_type_0::FloatMemWrite              0      0.00%    100.00% # Type of FU issued
system.cpu.iq.FU_type_0::IprAccess                  0      0.00%    100.00% # Type of FU issued
system.cpu.iq.FU_type_0::InstPrefetch               0      0.00%    100.00% # Type of FU issued
system.cpu.iq.FU_type_0::total                1264877                       # Type of FU issued
system.cpu.iq.fp_alu_accesses                       0                       # Number of floating point alu accesses
system.cpu.iq.fp_inst_queue_reads                   0                       # Number of floating instruction queue reads
system.cpu.iq.fp_inst_queue_wakeup_accesses            0                       # Number of floating instruction queue wakeup accesses
system.cpu.iq.fp_inst_queue_writes                  0                       # Number of floating instruction queue writes
system.cpu.iq.fu_busy_cnt                       21444                       # FU busy when requested
system.cpu.iq.fu_busy_rate                   0.016953                       # FU busy rate (busy events/executed inst)
system.cpu.iq.fu_full::No_OpClass                   0      0.00%      0.00% # attempts to use FU when none available
system.cpu.iq.fu_full::IntAlu                    5630     26.25%     26.25% # attempts to use FU when none available
system.cpu.iq.fu_full::IntMult                      0      0.00%     26.25% # attempts to use FU when none available
system.cpu.iq.fu_full::IntDiv                       0      0.00%     26.25% # attempts to use FU when none available
system.cpu.iq.fu_full::FloatAdd                     0      0.00%     26.25% # attempts to use FU when none available
system.cpu.iq.fu_full::FloatCmp                     0      0.00%     26.25% # attempts to use FU when none available
system.cpu.iq.fu_full::FloatCvt                     0      0.00%     26.25% # attempts to use FU when none available
system.cpu.iq.fu_full::FloatMult                    0      0.00%     26.25% # attempts to use FU when none available
system.cpu.iq.fu_full::FloatMultAcc                 0      0.00%     26.25% # attempts to use FU when none available
system.cpu.iq.fu_full::FloatDiv                     0      0.00%     26.25% # attempts to use FU when none available
system.cpu.iq.fu_full::FloatMisc                    1      0.00%     26.26% # attempts to use FU when none available
system.cpu.iq.fu_full::FloatSqrt                    0      0.00%     26.26% # attempts to use FU when none available
system.cpu.iq.fu_full::SimdAdd                      0      0.00%     26.26% # attempts to use FU when none available
system.cpu.iq.fu_full::SimdAddAcc                   0      0.00%     26.26% # attempts to use FU when none available
system.cpu.iq.fu_full::SimdAlu                      9      0.04%     26.30% # attempts to use FU when none available
system.cpu.iq.fu_full::SimdCmp                      6      0.03%     26.33% # attempts to use FU when none available
system.cpu.iq.fu_full::SimdCvt                      0      0.00%     26.33% # attempts to use FU when none available
system.cpu.iq.fu_full::SimdMisc                     0      0.00%     26.33% # attempts to use FU when none available
system.cpu.iq.fu_full::SimdMult                     0      0.00%     26.33% # attempts to use FU when none available
system.cpu.iq.fu_full::SimdMultAcc                  0      0.00%     26.33% # attempts to use FU when none available
system.cpu.iq.fu_full::SimdShift                    0      0.00%     26.33% # attempts to use FU when none available
system.cpu.iq.fu_full::SimdShiftAcc                 0      0.00%     26.33% # attempts to use FU when none available
system.cpu.iq.fu_full::SimdDiv                      0      0.00%     26.33% # attempts to use FU when none available
system.cpu.iq.fu_full::SimdSqrt                     0      0.00%     26.33% # attempts to use FU when none available
system.cpu.iq.fu_full::SimdFloatAdd                 0      0.00%     26.33% # attempts to use FU when none available
system.cpu.iq.fu_full::SimdFloatAlu                 0      0.00%     26.33% # attempts to use FU when none available
system.cpu.iq.fu_full::SimdFloatCmp                 0      0.00%     26.33% # attempts to use FU when none available
system.cpu.iq.fu_full::SimdFloatCvt                 0      0.00%     26.33% # attempts to use FU when none available
system.cpu.iq.fu_full::SimdFloatDiv                 0      0.00%     26.33% # attempts to use FU when none available
system.cpu.iq.fu_full::SimdFloatMisc                0      0.00%     26.33% # attempts to use FU when none available
system.cpu.iq.fu_full::SimdFloatMult                0      0.00%     26.33% # attempts to use FU when none available
system.cpu.iq.fu_full::SimdFloatMultAcc             0      0.00%     26.33% # attempts to use FU when none available
system.cpu.iq.fu_full::SimdFloatSqrt                0      0.00%     26.33% # attempts to use FU when none available
system.cpu.iq.fu_full::SimdReduceAdd                0      0.00%     26.33% # attempts to use FU when none available
system.cpu.iq.fu_full::SimdReduceAlu                0      0.00%     26.33% # attempts to use FU when none available
system.cpu.iq.fu_full::SimdReduceCmp                0      0.00%     26.33% # attempts to use FU when none available
system.cpu.iq.fu_full::SimdFloatReduceAdd            0      0.00%     26.33% # attempts to use FU when none available
system.cpu.iq.fu_full::SimdFloatReduceCmp            0      0.00%     26.33% # attempts to use FU when none available
system.cpu.iq.fu_full::SimdAes                      0      0.00%     26.33% # attempts to use FU when none available
system.cpu.iq.fu_full::SimdAesMix                   0      0.00%     26.33% # attempts to use FU when none available
system.cpu.iq.fu_full::SimdSha1Hash                 0      0.00%     26.33% # attempts to use FU when none available
system.cpu.iq.fu_full::SimdSha1Hash2                0      0.00%     26.33% # attempts to use FU when none available
system.cpu.iq.fu_full::SimdSha256Hash               0      0.00%     26.33% # attempts to use FU when none available
system.cpu.iq.fu_full::SimdSha256Hash2              0      0.00%     26.33% # attempts to use FU when none available
system.cpu.iq.fu_full::SimdShaSigma2                0      0.00%     26.33% # attempts to use FU when none available
system.cpu.iq.fu_full::SimdShaSigma3                0      0.00%     26.33% # attempts to use FU when none available
system.cpu.iq.fu_full::SimdPredAlu                  0      0.00%     26.33% # attempts to use FU when none available
system.cpu.iq.fu_full::MemRead                   7048     32.87%     59.20% # attempts to use FU when none available
system.cpu.iq.fu_full::MemWrite                  8750     40.80%    100.00% # attempts to use FU when none available
system.cpu.iq.fu_full::FloatMemRead                 0      0.00%    100.00% # attempts to use FU when none available
system.cpu.iq.fu_full::FloatMemWrite                0      0.00%    100.00% # attempts to use FU when none available
system.cpu.iq.fu_full::IprAccess                    0      0.00%    100.00% # attempts to use FU when none available
system.cpu.iq.fu_full::InstPrefetch                 0      0.00%    100.00% # attempts to use FU when none available
system.cpu.iq.int_alu_accesses                1283376                       # Number of integer alu accesses
system.cpu.iq.int_inst_queue_reads            3268204                       # Number of integer instruction queue reads
system.cpu.iq.int_inst_queue_wakeup_accesses      1239480                       # Number of integer instruction queue wakeup accesses
system.cpu.iq.int_inst_queue_writes           1427026                       # Number of integer instruction queue writes
system.cpu.iq.iqInstsAdded                    1303854                       # Number of instructions added to the IQ (excludes non-spec)
system.cpu.iq.iqInstsIssued                   1264877                       # Number of instructions issued
system.cpu.iq.iqNonSpecInstsAdded                 137                       # Number of non-speculative instructions added to the IQ
system.cpu.iq.iqSquashedInstsExamined          126385                       # Number of squashed instructions iterated over during squash; mainly for profiling
system.cpu.iq.iqSquashedInstsIssued               744                       # Number of squashed instructions issued
system.cpu.iq.iqSquashedNonSpecRemoved             62                       # Number of squashed non-spec instructions that were removed
system.cpu.iq.iqSquashedOperandsExamined        90366                       # Number of squashed operands that are examined and possibly removed from graph
system.cpu.iq.issued_per_cycle::samples        721970                       # Number of insts issued each cycle
system.cpu.iq.issued_per_cycle::mean         1.751980                       # Number of insts issued each cycle
system.cpu.iq.issued_per_cycle::stdev        2.194709                       # Number of insts issued each cycle
system.cpu.iq.issued_per_cycle::underflows            0      0.00%      0.00% # Number of insts issued each cycle
system.cpu.iq.issued_per_cycle::0              327077     45.30%     45.30% # Number of insts issued each cycle
system.cpu.iq.issued_per_cycle::1              106671     14.77%     60.08% # Number of insts issued each cycle
system.cpu.iq.issued_per_cycle::2               68200      9.45%     69.52% # Number of insts issued each cycle
system.cpu.iq.issued_per_cycle::3               68958      9.55%     79.08% # Number of insts issued each cycle
system.cpu.iq.issued_per_cycle::4               57905      8.02%     87.10% # Number of insts issued each cycle
system.cpu.iq.issued_per_cycle::5               29669      4.11%     91.21% # Number of insts issued each cycle
system.cpu.iq.issued_per_cycle::6               28109      3.89%     95.10% # Number of insts issued each cycle
system.cpu.iq.issued_per_cycle::7               16735      2.32%     97.42% # Number of insts issued each cycle
system.cpu.iq.issued_per_cycle::8               18646      2.58%    100.00% # Number of insts issued each cycle
system.cpu.iq.issued_per_cycle::overflows            0      0.00%    100.00% # Number of insts issued each cycle
system.cpu.iq.issued_per_cycle::min_value            0                       # Number of insts issued each cycle
system.cpu.iq.issued_per_cycle::max_value            8                       # Number of insts issued each cycle
system.cpu.iq.issued_per_cycle::total          721970                       # Number of insts issued each cycle
system.cpu.iq.rate                           1.500454                       # Inst issue rate
system.cpu.iq.vec_alu_accesses                   2857                       # Number of vector alu accesses
system.cpu.iq.vec_inst_queue_reads               5700                       # Number of vector instruction queue reads
system.cpu.iq.vec_inst_queue_wakeup_accesses         2660                       # Number of vector instruction queue wakeup accesses
system.cpu.iq.vec_inst_queue_writes              3471                       # Number of vector instruction queue writes
system.cpu.itb.accesses                             0                       # DTB accesses
system.cpu.itb.align_faults                         0                       # Number of TLB faults due to alignment restrictions
system.cpu.itb.domain_faults                        0                       # Number of TLB faults due to domain restrictions
system.cpu.itb.flush_entries                        0                       # Number of entries that have been flushed from TLB
system.cpu.itb.flush_tlb                            0                       # Number of times complete TLB was flushed
system.cpu.itb.flush_tlb_asid                       0                       # Number of times TLB was flushed by ASID
system.cpu.itb.flush_tlb_mva                        0                       # Number of times TLB was flushed by MVA
system.cpu.itb.flush_tlb_mva_asid                   0                       # Number of times TLB was flushed by MVA & ASID
system.cpu.itb.hits                                 0                       # DTB hits
system.cpu.itb.inst_accesses                        0                       # ITB inst accesses
system.cpu.itb.inst_hits                            0                       # ITB inst hits
system.cpu.itb.inst_misses                          0                       # ITB inst misses
system.cpu.itb.misses                               0                       # DTB misses
system.cpu.itb.perms_faults                         0                       # Number of TLB faults due to permissions restrictions
system.cpu.itb.prefetch_faults                      0                       # Number of TLB faults due to prefetch
system.cpu.itb.read_accesses                        0                       # DTB read accesses
system.cpu.itb.read_hits                            0                       # DTB read hits
system.cpu.itb.read_misses                          0                       # DTB read misses
system.cpu.itb.stage2_mmu.stage2_tlb.accesses            0                       # DTB accesses
system.cpu.itb.stage2_mmu.stage2_tlb.align_faults            0                       # Number of TLB faults due to alignment restrictions
system.cpu.itb.stage2_mmu.stage2_tlb.domain_faults            0                       # Number of TLB faults due to domain restrictions
system.cpu.itb.stage2_mmu.stage2_tlb.flush_entries            0                       # Number of entries that have been flushed from TLB
system.cpu.itb.stage2_mmu.stage2_tlb.flush_tlb            0                       # Number of times complete TLB was flushed
system.cpu.itb.stage2_mmu.stage2_tlb.flush_tlb_asid            0                       # Number of times TLB was flushed by ASID
system.cpu.itb.stage2_mmu.stage2_tlb.flush_tlb_mva            0                       # Number of times TLB was flushed by MVA
system.cpu.itb.stage2_mmu.stage2_tlb.flush_tlb_mva_asid            0                       # Number of times TLB was flushed by MVA & ASID
system.cpu.itb.stage2_mmu.stage2_tlb.hits            0                       # DTB hits
system.cpu.itb.stage2_mmu.stage2_tlb.inst_accesses            0                       # ITB inst accesses
system.cpu.itb.stage2_mmu.stage2_tlb.inst_hits            0                       # ITB inst hits
system.cpu.itb.stage2_mmu.stage2_tlb.inst_misses            0                       # ITB inst misses
system.cpu.itb.stage2_mmu.stage2_tlb.misses            0                       # DTB misses
system.cpu.itb.stage2_mmu.stage2_tlb.perms_faults            0                       # Number of TLB faults due to permissions restrictions
system.cpu.itb.stage2_mmu.stage2_tlb.prefetch_faults            0                       # Number of TLB faults due to prefetch
system.cpu.itb.stage2_mmu.stage2_tlb.read_accesses            0                       # DTB read accesses
system.cpu.itb.stage2_mmu.stage2_tlb.read_hits            0                       # DTB read hits
system.cpu.itb.stage2_mmu.stage2_tlb.read_misses            0                       # DTB read misses
system.cpu.itb.stage2_mmu.stage2_tlb.walker.walkRequestOrigin_Requested::Data            0                       # Table walker requests started/completed, data/inst
system.cpu.itb.stage2_mmu.stage2_tlb.walker.walkRequestOrigin_Requested::Inst            0                       # Table walker requests started/completed, data/inst
system.cpu.itb.stage2_mmu.stage2_tlb.walker.walkRequestOrigin_Requested::total            0                       # Table walker requests started/completed, data/inst
system.cpu.itb.stage2_mmu.stage2_tlb.walker.walkRequestOrigin_Completed::Data            0                       # Table walker requests started/completed, data/inst
system.cpu.itb.stage2_mmu.stage2_tlb.walker.walkRequestOrigin_Completed::Inst            0                       # Table walker requests started/completed, data/inst
system.cpu.itb.stage2_mmu.stage2_tlb.walker.walkRequestOrigin_Completed::total            0                       # Table walker requests started/completed, data/inst
system.cpu.itb.stage2_mmu.stage2_tlb.walker.walkRequestOrigin::total            0                       # Table walker requests started/completed, data/inst
system.cpu.itb.stage2_mmu.stage2_tlb.walker.walks            0                       # Table walker walks requested
system.cpu.itb.stage2_mmu.stage2_tlb.write_accesses            0                       # DTB write accesses
system.cpu.itb.stage2_mmu.stage2_tlb.write_hits            0                       # DTB write hits
system.cpu.itb.stage2_mmu.stage2_tlb.write_misses            0                       # DTB write misses
system.cpu.itb.walker.walkRequestOrigin_Requested::Data            0                       # Table walker requests started/completed, data/inst
system.cpu.itb.walker.walkRequestOrigin_Requested::Inst            0                       # Table walker requests started/completed, data/inst
system.cpu.itb.walker.walkRequestOrigin_Requested::total            0                       # Table walker requests started/completed, data/inst
system.cpu.itb.walker.walkRequestOrigin_Completed::Data            0                       # Table walker requests started/completed, data/inst
system.cpu.itb.walker.walkRequestOrigin_Completed::Inst            0                       # Table walker requests started/completed, data/inst
system.cpu.itb.walker.walkRequestOrigin_Completed::total            0                       # Table walker requests started/completed, data/inst
system.cpu.itb.walker.walkRequestOrigin::total            0                       # Table walker requests started/completed, data/inst
system.cpu.itb.walker.walks                         0                       # Table walker walks requested
system.cpu.itb.write_accesses                       0                       # DTB write accesses
system.cpu.itb.write_hits                           0                       # DTB write hits
system.cpu.itb.write_misses                         0                       # DTB write misses
system.cpu.memDep0.conflictingLoads              3333                       # Number of conflicting loads.
system.cpu.memDep0.conflictingStores             5437                       # Number of conflicting stores.
system.cpu.memDep0.insertedLoads               244035                       # Number of loads inserted to the mem dependence unit.
system.cpu.memDep0.insertedStores              168447                       # Number of stores inserted to the mem dependence unit.
system.cpu.misc_regfile_reads                  948253                       # number of misc regfile reads
system.cpu.misc_regfile_writes                    272                       # number of misc regfile writes
system.cpu.numCycles                           842996                       # number of cpu cycles simulated
system.cpu.numWorkItemsCompleted                    0                       # number of work items this cpu completed
system.cpu.numWorkItemsStarted                      0                       # number of work items this cpu started
system.cpu.rename.BlockCycles                   25700                       # Number of cycles rename is blocking
system.cpu.rename.CommittedMaps               1212533                       # Number of HB maps that are committed
system.cpu.rename.IQFullEvents                  10243                       # Number of times rename has blocked due to IQ full
system.cpu.rename.IdleCycles                   158522                       # Number of cycles rename is idle
system.cpu.rename.LQFullEvents                    195                       # Number of times rename has blocked due to LQ full
system.cpu.rename.ROBFullEvents                    27                       # Number of times rename has blocked due to ROB full
system.cpu.rename.RenameLookups               1984245                       # Number of register rename lookups that rename has made
system.cpu.rename.RenamedInsts                1334133                       # Number of instructions processed by rename
system.cpu.rename.RenamedOperands             1371130                       # Number of destination operands rename has renamed
system.cpu.rename.RunCycles                    215679                       # Number of cycles rename is running
system.cpu.rename.SQFullEvents                  26142                       # Number of times rename has blocked due to SQ full
system.cpu.rename.SquashCycles                   6007                       # Number of cycles rename is squashing
system.cpu.rename.UnblockCycles                 57509                       # Number of cycles rename is unblocking
system.cpu.rename.UndoneMaps                   158510                       # Number of HB maps that are undone due to squashing
system.cpu.rename.int_rename_lookups          1497792                       # Number of integer rename lookups
system.cpu.rename.serializeStallCycles         258553                       # count of cycles rename stalled for serializing inst
system.cpu.rename.serializingInsts              15102                       # count of serializing insts renamed
system.cpu.rename.skidInsts                    131232                       # count of insts added to the skid buffer
system.cpu.rename.tempSerializingInsts            144                       # count of temporary serializing insts renamed
system.cpu.rename.vec_rename_lookups             3947                       # Number of vector rename lookups
system.cpu.rob.rob_reads                      1934053                       # The number of ROB reads
system.cpu.rob.rob_writes                     2628030                       # The number of ROB writes
system.cpu.timesIdled                            1233                       # Number of times that the entire CPU went into an idle state and unscheduled itself
system.cpu.vec_regfile_reads                     3198                       # number of vector regfile reads
system.cpu.vec_regfile_writes                    1578                       # number of vector regfile writes
system.cpu.workload.numSyscalls                    16                       # Number of system calls
system.membus.snoop_filter.hit_multi_requests            0                       # Number of requests hitting in the snoop filter with multiple (>1) holders of the requested data.
system.membus.snoop_filter.hit_multi_snoops            0                       # Number of snoops hitting in the snoop filter with multiple (>1) holders of the requested data.
system.membus.snoop_filter.hit_single_requests            0                       # Number of requests hitting in the snoop filter with a single holder of the requested data.
system.membus.snoop_filter.hit_single_snoops            0                       # Number of snoops hitting in the snoop filter with a single holder of the requested data.
system.membus.snoop_filter.tot_requests          2825                       # Total number of requests made to the snoop filter.
system.membus.snoop_filter.tot_snoops               0                       # Total number of snoops made to the snoop filter.
system.tol2bus.snoop_filter.hit_multi_requests            1                       # Number of requests hitting in the snoop filter with multiple (>1) holders of the requested data.
system.tol2bus.snoop_filter.hit_multi_snoops            0                       # Number of snoops hitting in the snoop filter with multiple (>1) holders of the requested data.
system.tol2bus.snoop_filter.hit_single_requests         1811                       # Number of requests hitting in the snoop filter with a single holder of the requested data.
system.tol2bus.snoop_filter.hit_single_snoops            0                       # Number of snoops hitting in the snoop filter with a single holder of the requested data.
system.tol2bus.snoop_filter.tot_requests         5475                       # Total number of requests made to the snoop filter.
system.tol2bus.snoop_filter.tot_snoops              0                       # Total number of snoops made to the snoop filter.
system.membus.trans_dist::ReadResp               2052                       # Transaction distribution
system.membus.trans_dist::ReadExReq               763                       # Transaction distribution
system.membus.trans_dist::ReadExResp              763                       # Transaction distribution
system.membus.trans_dist::ReadSharedReq          2052                       # Transaction distribution
system.membus.trans_dist::InvalidateReq            10                       # Transaction distribution
system.membus.pkt_count_system.l2.mem_side::system.mem_ctrls.port         5640                       # Packet count per connected master and slave (bytes)
system.membus.pkt_count::total                   5640                       # Packet count per connected master and slave (bytes)
system.membus.pkt_size_system.l2.mem_side::system.mem_ctrls.port       180160                       # Cumulative packet size per connected master and slave (bytes)
system.membus.pkt_size::total                  180160                       # Cumulative packet size per connected master and slave (bytes)
system.membus.snoops                                0                       # Total snoops (count)
system.membus.snoopTraffic                          0                       # Total snoop traffic (bytes)
system.membus.snoop_fanout::samples              2825                       # Request fanout histogram
system.membus.snoop_fanout::mean                    0                       # Request fanout histogram
system.membus.snoop_fanout::stdev                   0                       # Request fanout histogram
system.membus.snoop_fanout::underflows              0      0.00%      0.00% # Request fanout histogram
system.membus.snoop_fanout::0                    2825    100.00%    100.00% # Request fanout histogram
system.membus.snoop_fanout::1                       0      0.00%    100.00% # Request fanout histogram
system.membus.snoop_fanout::overflows               0      0.00%    100.00% # Request fanout histogram
system.membus.snoop_fanout::min_value               0                       # Request fanout histogram
system.membus.snoop_fanout::max_value               0                       # Request fanout histogram
system.membus.snoop_fanout::total                2825                       # Request fanout histogram
system.membus.reqLayer0.occupancy             3484000                       # Layer occupancy (ticks)
system.membus.reqLayer0.utilization               0.8                       # Layer utilization (%)
system.membus.respLayer1.occupancy           14911500                       # Layer occupancy (ticks)
system.membus.respLayer1.utilization              3.5                       # Layer utilization (%)
system.membus.power_state.pwrStateResidencyTicks::UNDEFINED    421497500                       # Cumulative time (in ticks) in various power states
system.tol2bus.trans_dist::ReadResp              2801                       # Transaction distribution
system.tol2bus.trans_dist::WritebackDirty          615                       # Transaction distribution
system.tol2bus.trans_dist::WritebackClean         1041                       # Transaction distribution
system.tol2bus.trans_dist::CleanEvict             155                       # Transaction distribution
system.tol2bus.trans_dist::ReadExReq              850                       # Transaction distribution
system.tol2bus.trans_dist::ReadExResp             850                       # Transaction distribution
system.tol2bus.trans_dist::ReadCleanReq          2001                       # Transaction distribution
system.tol2bus.trans_dist::ReadSharedReq          800                       # Transaction distribution
system.tol2bus.trans_dist::InvalidateReq           13                       # Transaction distribution
system.tol2bus.trans_dist::InvalidateResp           13                       # Transaction distribution
system.tol2bus.pkt_count_system.cpu.icache.mem_side::system.l2.cpu_side         5043                       # Packet count per connected master and slave (bytes)
system.tol2bus.pkt_count_system.cpu.dcache.mem_side::system.l2.cpu_side         4096                       # Packet count per connected master and slave (bytes)
system.tol2bus.pkt_count::total                  9139                       # Packet count per connected master and slave (bytes)
system.tol2bus.pkt_size_system.cpu.icache.mem_side::system.l2.cpu_side       194688                       # Cumulative packet size per connected master and slave (bytes)
system.tol2bus.pkt_size_system.cpu.dcache.mem_side::system.l2.cpu_side       144960                       # Cumulative packet size per connected master and slave (bytes)
system.tol2bus.pkt_size::total                 339648                       # Cumulative packet size per connected master and slave (bytes)
system.tol2bus.snoops                               0                       # Total snoops (count)
system.tol2bus.snoopTraffic                         0                       # Total snoop traffic (bytes)
system.tol2bus.snoop_fanout::samples             3664                       # Request fanout histogram
system.tol2bus.snoop_fanout::mean            0.000273                       # Request fanout histogram
system.tol2bus.snoop_fanout::stdev           0.016520                       # Request fanout histogram
system.tol2bus.snoop_fanout::underflows             0      0.00%      0.00% # Request fanout histogram
system.tol2bus.snoop_fanout::0                   3663     99.97%     99.97% # Request fanout histogram
system.tol2bus.snoop_fanout::1                      1      0.03%    100.00% # Request fanout histogram
system.tol2bus.snoop_fanout::2                      0      0.00%    100.00% # Request fanout histogram
system.tol2bus.snoop_fanout::overflows              0      0.00%    100.00% # Request fanout histogram
system.tol2bus.snoop_fanout::min_value              0                       # Request fanout histogram
system.tol2bus.snoop_fanout::max_value              1                       # Request fanout histogram
system.tol2bus.snoop_fanout::total               3664                       # Request fanout histogram
system.tol2bus.reqLayer0.occupancy            4466697                       # Layer occupancy (ticks)
system.tol2bus.reqLayer0.utilization              1.1                       # Layer utilization (%)
system.tol2bus.respLayer1.occupancy           2481500                       # Layer occupancy (ticks)
system.tol2bus.respLayer1.utilization             0.6                       # Layer utilization (%)
system.tol2bus.respLayer0.occupancy           3001500                       # Layer occupancy (ticks)
system.tol2bus.respLayer0.utilization             0.7                       # Layer utilization (%)
system.tol2bus.power_state.pwrStateResidencyTicks::UNDEFINED    421497500                       # Cumulative time (in ticks) in various power states
system.voltage_domain.voltage                       1                       # Voltage in Volts
system.clk_domain.clock                          1000                       # Clock period in ticks
system.l2.demand_hits::.cpu.inst                  291                       # number of demand (read+write) hits
system.l2.demand_hits::.cpu.data                  362                       # number of demand (read+write) hits
system.l2.demand_hits::.cpu.icache.prefetcher          183                       # number of demand (read+write) hits
system.l2.demand_hits::total                      836                       # number of demand (read+write) hits
system.l2.overall_hits::.cpu.inst                 291                       # number of overall hits
system.l2.overall_hits::.cpu.data                 362                       # number of overall hits
system.l2.overall_hits::.cpu.icache.prefetcher          183                       # number of overall hits
system.l2.overall_hits::total                     836                       # number of overall hits
system.l2.demand_misses::.cpu.inst               1527                       # number of demand (read+write) misses
system.l2.demand_misses::.cpu.data               1288                       # number of demand (read+write) misses
system.l2.demand_misses::total                   2815                       # number of demand (read+write) misses
system.l2.overall_misses::.cpu.inst              1527                       # number of overall misses
system.l2.overall_misses::.cpu.data              1288                       # number of overall misses
system.l2.overall_misses::total                  2815                       # number of overall misses
system.l2.demand_miss_latency::.cpu.inst    119069500                       # number of demand (read+write) miss cycles
system.l2.demand_miss_latency::.cpu.data    103438500                       # number of demand (read+write) miss cycles
system.l2.demand_miss_latency::total        222508000                       # number of demand (read+write) miss cycles
system.l2.overall_miss_latency::.cpu.inst    119069500                       # number of overall miss cycles
system.l2.overall_miss_latency::.cpu.data    103438500                       # number of overall miss cycles
system.l2.overall_miss_latency::total       222508000                       # number of overall miss cycles
system.l2.demand_accesses::.cpu.inst             1818                       # number of demand (read+write) accesses
system.l2.demand_accesses::.cpu.data             1650                       # number of demand (read+write) accesses
system.l2.demand_accesses::.cpu.icache.prefetcher          183                       # number of demand (read+write) accesses
system.l2.demand_accesses::total                 3651                       # number of demand (read+write) accesses
system.l2.overall_accesses::.cpu.inst            1818                       # number of overall (read+write) accesses
system.l2.overall_accesses::.cpu.data            1650                       # number of overall (read+write) accesses
system.l2.overall_accesses::.cpu.icache.prefetcher          183                       # number of overall (read+write) accesses
system.l2.overall_accesses::total                3651                       # number of overall (read+write) accesses
system.l2.demand_miss_rate::.cpu.inst        0.839934                       # miss rate for demand accesses
system.l2.demand_miss_rate::.cpu.data        0.780606                       # miss rate for demand accesses
system.l2.demand_miss_rate::total            0.771022                       # miss rate for demand accesses
system.l2.overall_miss_rate::.cpu.inst       0.839934                       # miss rate for overall accesses
system.l2.overall_miss_rate::.cpu.data       0.780606                       # miss rate for overall accesses
system.l2.overall_miss_rate::total           0.771022                       # miss rate for overall accesses
system.l2.demand_avg_miss_latency::.cpu.inst 77976.096922                       # average overall miss latency
system.l2.demand_avg_miss_latency::.cpu.data 80309.394410                       # average overall miss latency
system.l2.demand_avg_miss_latency::total 79043.694494                       # average overall miss latency
system.l2.overall_avg_miss_latency::.cpu.inst 77976.096922                       # average overall miss latency
system.l2.overall_avg_miss_latency::.cpu.data 80309.394410                       # average overall miss latency
system.l2.overall_avg_miss_latency::total 79043.694494                       # average overall miss latency
system.l2.blocked_cycles::no_mshrs                  0                       # number of cycles access was blocked
system.l2.blocked_cycles::no_targets                0                       # number of cycles access was blocked
system.l2.blocked::no_mshrs                         0                       # number of cycles access was blocked
system.l2.blocked::no_targets                       0                       # number of cycles access was blocked
system.l2.avg_blocked_cycles::no_mshrs            nan                       # average number of cycles each access was blocked
system.l2.avg_blocked_cycles::no_targets          nan                       # average number of cycles each access was blocked
system.l2.demand_mshr_misses::.cpu.inst          1527                       # number of demand (read+write) MSHR misses
system.l2.demand_mshr_misses::.cpu.data          1288                       # number of demand (read+write) MSHR misses
system.l2.demand_mshr_misses::total              2815                       # number of demand (read+write) MSHR misses
system.l2.overall_mshr_misses::.cpu.inst         1527                       # number of overall MSHR misses
system.l2.overall_mshr_misses::.cpu.data         1288                       # number of overall MSHR misses
system.l2.overall_mshr_misses::total             2815                       # number of overall MSHR misses
system.l2.demand_mshr_miss_latency::.cpu.inst    103799500                       # number of demand (read+write) MSHR miss cycles
system.l2.demand_mshr_miss_latency::.cpu.data     90558500                       # number of demand (read+write) MSHR miss cycles
system.l2.demand_mshr_miss_latency::total    194358000                       # number of demand (read+write) MSHR miss cycles
system.l2.overall_mshr_miss_latency::.cpu.inst    103799500                       # number of overall MSHR miss cycles
system.l2.overall_mshr_miss_latency::.cpu.data     90558500                       # number of overall MSHR miss cycles
system.l2.overall_mshr_miss_latency::total    194358000                       # number of overall MSHR miss cycles
system.l2.demand_mshr_miss_rate::.cpu.inst     0.839934                       # mshr miss rate for demand accesses
system.l2.demand_mshr_miss_rate::.cpu.data     0.780606                       # mshr miss rate for demand accesses
system.l2.demand_mshr_miss_rate::total       0.771022                       # mshr miss rate for demand accesses
system.l2.overall_mshr_miss_rate::.cpu.inst     0.839934                       # mshr miss rate for overall accesses
system.l2.overall_mshr_miss_rate::.cpu.data     0.780606                       # mshr miss rate for overall accesses
system.l2.overall_mshr_miss_rate::total      0.771022                       # mshr miss rate for overall accesses
system.l2.demand_avg_mshr_miss_latency::.cpu.inst 67976.096922                       # average overall mshr miss latency
system.l2.demand_avg_mshr_miss_latency::.cpu.data 70309.394410                       # average overall mshr miss latency
system.l2.demand_avg_mshr_miss_latency::total 69043.694494                       # average overall mshr miss latency
system.l2.overall_avg_mshr_miss_latency::.cpu.inst 67976.096922                       # average overall mshr miss latency
system.l2.overall_avg_mshr_miss_latency::.cpu.data 70309.394410                       # average overall mshr miss latency
system.l2.overall_avg_mshr_miss_latency::total 69043.694494                       # average overall mshr miss latency
system.l2.replacements                              0                       # number of replacements
system.l2.WritebackDirty_hits::.writebacks          615                       # number of WritebackDirty hits
system.l2.WritebackDirty_hits::total              615                       # number of WritebackDirty hits
system.l2.WritebackDirty_accesses::.writebacks          615                       # number of WritebackDirty accesses(hits+misses)
system.l2.WritebackDirty_accesses::total          615                       # number of WritebackDirty accesses(hits+misses)
system.l2.WritebackClean_hits::.writebacks         1041                       # number of WritebackClean hits
system.l2.WritebackClean_hits::total             1041                       # number of WritebackClean hits
system.l2.WritebackClean_accesses::.writebacks         1041                       # number of WritebackClean accesses(hits+misses)
system.l2.WritebackClean_accesses::total         1041                       # number of WritebackClean accesses(hits+misses)
system.l2.ReadExReq_hits::.cpu.data                87                       # number of ReadExReq hits
system.l2.ReadExReq_hits::total                    87                       # number of ReadExReq hits
system.l2.ReadExReq_misses::.cpu.data             763                       # number of ReadExReq misses
system.l2.ReadExReq_misses::total                 763                       # number of ReadExReq misses
system.l2.ReadExReq_miss_latency::.cpu.data     61544500                       # number of ReadExReq miss cycles
system.l2.ReadExReq_miss_latency::total      61544500                       # number of ReadExReq miss cycles
system.l2.ReadExReq_accesses::.cpu.data           850                       # number of ReadExReq accesses(hits+misses)
system.l2.ReadExReq_accesses::total               850                       # number of ReadExReq accesses(hits+misses)
system.l2.ReadExReq_miss_rate::.cpu.data     0.897647                       # miss rate for ReadExReq accesses
system.l2.ReadExReq_miss_rate::total         0.897647                       # miss rate for ReadExReq accesses
system.l2.ReadExReq_avg_miss_latency::.cpu.data 80661.205767                       # average ReadExReq miss latency
system.l2.ReadExReq_avg_miss_latency::total 80661.205767                       # average ReadExReq miss latency
system.l2.ReadExReq_mshr_misses::.cpu.data          763                       # number of ReadExReq MSHR misses
system.l2.ReadExReq_mshr_misses::total            763                       # number of ReadExReq MSHR misses
system.l2.ReadExReq_mshr_miss_latency::.cpu.data     53914500                       # number of ReadExReq MSHR miss cycles
system.l2.ReadExReq_mshr_miss_latency::total     53914500                       # number of ReadExReq MSHR miss cycles
system.l2.ReadExReq_mshr_miss_rate::.cpu.data     0.897647                       # mshr miss rate for ReadExReq accesses
system.l2.ReadExReq_mshr_miss_rate::total     0.897647                       # mshr miss rate for ReadExReq accesses
system.l2.ReadExReq_avg_mshr_miss_latency::.cpu.data 70661.205767                       # average ReadExReq mshr miss latency
system.l2.ReadExReq_avg_mshr_miss_latency::total 70661.205767                       # average ReadExReq mshr miss latency
system.l2.ReadCleanReq_hits::.cpu.inst            291                       # number of ReadCleanReq hits
system.l2.ReadCleanReq_hits::.cpu.icache.prefetcher          183                       # number of ReadCleanReq hits
system.l2.ReadCleanReq_hits::total                474                       # number of ReadCleanReq hits
system.l2.ReadCleanReq_misses::.cpu.inst         1527                       # number of ReadCleanReq misses
system.l2.ReadCleanReq_misses::total             1527                       # number of ReadCleanReq misses
system.l2.ReadCleanReq_miss_latency::.cpu.inst    119069500                       # number of ReadCleanReq miss cycles
system.l2.ReadCleanReq_miss_latency::total    119069500                       # number of ReadCleanReq miss cycles
system.l2.ReadCleanReq_accesses::.cpu.inst         1818                       # number of ReadCleanReq accesses(hits+misses)
system.l2.ReadCleanReq_accesses::.cpu.icache.prefetcher          183                       # number of ReadCleanReq accesses(hits+misses)
system.l2.ReadCleanReq_accesses::total           2001                       # number of ReadCleanReq accesses(hits+misses)
[...]
system.cpu.dcache.overall_miss_latency::total    412180406                       # number of overall miss cycles
system.cpu.dcache.demand_accesses::.cpu.data       381767                       # number of demand (read+write) accesses
system.cpu.dcache.demand_accesses::total       381767                       # number of demand (read+write) accesses
system.cpu.dcache.overall_accesses::.cpu.data       382561                       # number of overall (read+write) accesses
system.cpu.dcache.overall_accesses::total       382561                       # number of overall (read+write) accesses
system.cpu.dcache.demand_miss_rate::.cpu.data     0.017809                       # miss rate for demand accesses
system.cpu.dcache.demand_miss_rate::total     0.017809                       # miss rate for demand accesses
system.cpu.dcache.overall_miss_rate::.cpu.data     0.017796                       # miss rate for overall accesses
system.cpu.dcache.overall_miss_rate::total     0.017796                       # miss rate for overall accesses
system.cpu.dcache.demand_avg_miss_latency::.cpu.data 60623.680835                       # average overall miss latency
system.cpu.dcache.demand_avg_miss_latency::total 60623.680835                       # average overall miss latency
system.cpu.dcache.overall_avg_miss_latency::.cpu.data 60543.537897                       # average overall miss latency
system.cpu.dcache.overall_avg_miss_latency::total 60543.537897                       # average overall miss latency
system.cpu.dcache.blocked_cycles::no_mshrs        14267                       # number of cycles access was blocked
system.cpu.dcache.blocked_cycles::no_targets         1001                       # number of cycles access was blocked
system.cpu.dcache.blocked::no_mshrs               329                       # number of cycles access was blocked
system.cpu.dcache.blocked::no_targets              12                       # number of cycles access was blocked
system.cpu.dcache.avg_blocked_cycles::no_mshrs    43.364742                       # average number of cycles each access was blocked
system.cpu.dcache.avg_blocked_cycles::no_targets    83.416667                       # average number of cycles each access was blocked
system.cpu.dcache.writebacks::.writebacks          615                       # number of writebacks
system.cpu.dcache.writebacks::total               615                       # number of writebacks
system.cpu.dcache.demand_mshr_hits::.cpu.data         5146                       # number of demand (read+write) MSHR hits
system.cpu.dcache.demand_mshr_hits::total         5146                       # number of demand (read+write) MSHR hits
system.cpu.dcache.overall_mshr_hits::.cpu.data         5146                       # number of overall MSHR hits
system.cpu.dcache.overall_mshr_hits::total         5146                       # number of overall MSHR hits
system.cpu.dcache.demand_mshr_misses::.cpu.data         1653                       # number of demand (read+write) MSHR misses
system.cpu.dcache.demand_mshr_misses::total         1653                       # number of demand (read+write) MSHR misses
system.cpu.dcache.overall_mshr_misses::.cpu.data         1662                       # number of overall MSHR misses
system.cpu.dcache.overall_mshr_misses::total         1662                       # number of overall MSHR misses
system.cpu.dcache.demand_mshr_miss_latency::.cpu.data    109754987                       # number of demand (read+write) MSHR miss cycles
system.cpu.dcache.demand_mshr_miss_latency::total    109754987                       # number of demand (read+write) MSHR miss cycles
system.cpu.dcache.overall_mshr_miss_latency::.cpu.data    110083987                       # number of overall MSHR miss cycles
system.cpu.dcache.overall_mshr_miss_latency::total    110083987                       # number of overall MSHR miss cycles
system.cpu.dcache.demand_mshr_miss_rate::.cpu.data     0.004330                       # mshr miss rate for demand accesses
system.cpu.dcache.demand_mshr_miss_rate::total     0.004330                       # mshr miss rate for demand accesses
system.cpu.dcache.overall_mshr_miss_rate::.cpu.data     0.004344                       # mshr miss rate for overall accesses
system.cpu.dcache.overall_mshr_miss_rate::total     0.004344                       # mshr miss rate for overall accesses
system.cpu.dcache.demand_avg_mshr_miss_latency::.cpu.data 66397.451301                       # average overall mshr miss latency
system.cpu.dcache.demand_avg_mshr_miss_latency::total 66397.451301                       # average overall mshr miss latency
system.cpu.dcache.overall_avg_mshr_miss_latency::.cpu.data 66235.852587                       # average overall mshr miss latency
system.cpu.dcache.overall_avg_mshr_miss_latency::total 66235.852587                       # average overall mshr miss latency
system.cpu.dcache.replacements                    770                       # number of replacements
system.cpu.dcache.ReadReq_hits::.cpu.data       225455                       # number of ReadReq hits
system.cpu.dcache.ReadReq_hits::total          225455                       # number of ReadReq hits
system.cpu.dcache.ReadReq_misses::.cpu.data         2620                       # number of ReadReq misses
system.cpu.dcache.ReadReq_misses::total          2620                       # number of ReadReq misses
system.cpu.dcache.ReadReq_miss_latency::.cpu.data    129945000                       # number of ReadReq miss cycles
system.cpu.dcache.ReadReq_miss_latency::total    129945000                       # number of ReadReq miss cycles
system.cpu.dcache.ReadReq_accesses::.cpu.data       228075                       # number of ReadReq accesses(hits+misses)
system.cpu.dcache.ReadReq_accesses::total       228075                       # number of ReadReq accesses(hits+misses)
system.cpu.dcache.ReadReq_miss_rate::.cpu.data     0.011487                       # miss rate for ReadReq accesses
system.cpu.dcache.ReadReq_miss_rate::total     0.011487                       # miss rate for ReadReq accesses
system.cpu.dcache.ReadReq_avg_miss_latency::.cpu.data 49597.328244                       # average ReadReq miss latency
system.cpu.dcache.ReadReq_avg_miss_latency::total 49597.328244                       # average ReadReq miss latency
system.cpu.dcache.ReadReq_mshr_hits::.cpu.data         1830                       # number of ReadReq MSHR hits
system.cpu.dcache.ReadReq_mshr_hits::total         1830                       # number of ReadReq MSHR hits
system.cpu.dcache.ReadReq_mshr_misses::.cpu.data          790                       # number of ReadReq MSHR misses
system.cpu.dcache.ReadReq_mshr_misses::total          790                       # number of ReadReq MSHR misses
system.cpu.dcache.ReadReq_mshr_miss_latency::.cpu.data     45604500                       # number of ReadReq MSHR miss cycles
system.cpu.dcache.ReadReq_mshr_miss_latency::total     45604500                       # number of ReadReq MSHR miss cycles
system.cpu.dcache.ReadReq_mshr_miss_rate::.cpu.data     0.003464                       # mshr miss rate for ReadReq accesses
system.cpu.dcache.ReadReq_mshr_miss_rate::total     0.003464                       # mshr miss rate for ReadReq accesses
system.cpu.dcache.ReadReq_avg_mshr_miss_latency::.cpu.data 57727.215190                       # average ReadReq mshr miss latency
system.cpu.dcache.ReadReq_avg_mshr_miss_latency::total 57727.215190                       # average ReadReq mshr miss latency
system.cpu.dcache.WriteReq_hits::.cpu.data       149513                       # number of WriteReq hits
system.cpu.dcache.WriteReq_hits::total         149513                       # number of WriteReq hits
system.cpu.dcache.WriteReq_misses::.cpu.data         4172                       # number of WriteReq misses
system.cpu.dcache.WriteReq_misses::total         4172                       # number of WriteReq misses
system.cpu.dcache.WriteReq_miss_latency::.cpu.data    282012909                       # number of WriteReq miss cycles
system.cpu.dcache.WriteReq_miss_latency::total    282012909                       # number of WriteReq miss cycles
system.cpu.dcache.WriteReq_accesses::.cpu.data       153685                       # number of WriteReq accesses(hits+misses)
system.cpu.dcache.WriteReq_accesses::total       153685                       # number of WriteReq accesses(hits+misses)
system.cpu.dcache.WriteReq_miss_rate::.cpu.data     0.027146                       # miss rate for WriteReq accesses
system.cpu.dcache.WriteReq_miss_rate::total     0.027146                       # miss rate for WriteReq accesses
system.cpu.dcache.WriteReq_avg_miss_latency::.cpu.data 67596.574545                       # average WriteReq miss latency
system.cpu.dcache.WriteReq_avg_miss_latency::total 67596.574545                       # average WriteReq miss latency
system.cpu.dcache.WriteReq_mshr_hits::.cpu.data         3316                       # number of WriteReq MSHR hits
system.cpu.dcache.WriteReq_mshr_hits::total         3316                       # number of WriteReq MSHR hits
system.cpu.dcache.WriteReq_mshr_misses::.cpu.data          856                       # number of WriteReq MSHR misses
system.cpu.dcache.WriteReq_mshr_misses::total          856                       # number of WriteReq MSHR misses
system.cpu.dcache.WriteReq_mshr_miss_latency::.cpu.data     63934990                       # number of WriteReq MSHR miss cycles
system.cpu.dcache.WriteReq_mshr_miss_latency::total     63934990                       # number of WriteReq MSHR miss cycles
system.cpu.dcache.WriteReq_mshr_miss_rate::.cpu.data     0.005570                       # mshr miss rate for WriteReq accesses
system.cpu.dcache.WriteReq_mshr_miss_rate::total     0.005570                       # mshr miss rate for WriteReq accesses
system.cpu.dcache.WriteReq_avg_mshr_miss_latency::.cpu.data 74690.408879                       # average WriteReq mshr miss latency
system.cpu.dcache.WriteReq_avg_mshr_miss_latency::total 74690.408879                       # average WriteReq mshr miss latency
system.cpu.dcache.SoftPFReq_hits::.cpu.data          785                       # number of SoftPFReq hits
system.cpu.dcache.SoftPFReq_hits::total           785                       # number of SoftPFReq hits
system.cpu.dcache.SoftPFReq_misses::.cpu.data            9                       # number of SoftPFReq misses
system.cpu.dcache.SoftPFReq_misses::total            9                       # number of SoftPFReq misses
system.cpu.dcache.SoftPFReq_accesses::.cpu.data          794                       # number of SoftPFReq accesses(hits+misses)
system.cpu.dcache.SoftPFReq_accesses::total          794                       # number of SoftPFReq accesses(hits+misses)
system.cpu.dcache.SoftPFReq_miss_rate::.cpu.data     0.011335                       # miss rate for SoftPFReq accesses
system.cpu.dcache.SoftPFReq_miss_rate::total     0.011335                       # miss rate for SoftPFReq accesses
system.cpu.dcache.SoftPFReq_mshr_misses::.cpu.data            9                       # number of SoftPFReq MSHR misses
system.cpu.dcache.SoftPFReq_mshr_misses::total            9                       # number of SoftPFReq MSHR misses
system.cpu.dcache.SoftPFReq_mshr_miss_latency::.cpu.data       329000                       # number of SoftPFReq MSHR miss cycles
system.cpu.dcache.SoftPFReq_mshr_miss_latency::total       329000                       # number of SoftPFReq MSHR miss cycles
system.cpu.dcache.SoftPFReq_mshr_miss_rate::.cpu.data     0.011335                       # mshr miss rate for SoftPFReq accesses
system.cpu.dcache.SoftPFReq_mshr_miss_rate::total     0.011335                       # mshr miss rate for SoftPFReq accesses
system.cpu.dcache.SoftPFReq_avg_mshr_miss_latency::.cpu.data 36555.555556                       # average SoftPFReq mshr miss latency
system.cpu.dcache.SoftPFReq_avg_mshr_miss_latency::total 36555.555556                       # average SoftPFReq mshr miss latency
system.cpu.dcache.WriteLineReq_misses::.cpu.data            7                       # number of WriteLineReq misses
system.cpu.dcache.WriteLineReq_misses::total            7                       # number of WriteLineReq misses
system.cpu.dcache.WriteLineReq_miss_latency::.cpu.data       222497                       # number of WriteLineReq miss cycles
system.cpu.dcache.WriteLineReq_miss_latency::total       222497                       # number of WriteLineReq miss cycles
system.cpu.dcache.WriteLineReq_accesses::.cpu.data            7                       # number of WriteLineReq accesses(hits+misses)
system.cpu.dcache.WriteLineReq_accesses::total            7                       # number of WriteLineReq accesses(hits+misses)
system.cpu.dcache.WriteLineReq_miss_rate::.cpu.data            1                       # miss rate for WriteLineReq accesses
system.cpu.dcache.WriteLineReq_miss_rate::total            1                       # miss rate for WriteLineReq accesses
system.cpu.dcache.WriteLineReq_avg_miss_latency::.cpu.data 31785.285714                       # average WriteLineReq miss latency
system.cpu.dcache.WriteLineReq_avg_miss_latency::total 31785.285714                       # average WriteLineReq miss latency
system.cpu.dcache.WriteLineReq_mshr_misses::.cpu.data            7                       # number of WriteLineReq MSHR misses
system.cpu.dcache.WriteLineReq_mshr_misses::total            7                       # number of WriteLineReq MSHR misses
system.cpu.dcache.WriteLineReq_mshr_miss_latency::.cpu.data       215497                       # number of WriteLineReq MSHR miss cycles
system.cpu.dcache.WriteLineReq_mshr_miss_latency::total       215497                       # number of WriteLineReq MSHR miss cycles
system.cpu.dcache.WriteLineReq_mshr_miss_rate::.cpu.data            1                       # mshr miss rate for WriteLineReq accesses
system.cpu.dcache.WriteLineReq_mshr_miss_rate::total            1                       # mshr miss rate for WriteLineReq accesses
system.cpu.dcache.WriteLineReq_avg_mshr_miss_latency::.cpu.data 30785.285714                       # average WriteLineReq mshr miss latency
system.cpu.dcache.WriteLineReq_avg_mshr_miss_latency::total 30785.285714                       # average WriteLineReq mshr miss latency
system.cpu.dcache.LoadLockedReq_hits::.cpu.data           78                       # number of LoadLockedReq hits
system.cpu.dcache.LoadLockedReq_hits::total           78                       # number of LoadLockedReq hits
system.cpu.dcache.LoadLockedReq_misses::.cpu.data            2                       # number of LoadLockedReq misses
system.cpu.dcache.LoadLockedReq_misses::total            2                       # number of LoadLockedReq misses
system.cpu.dcache.LoadLockedReq_miss_latency::.cpu.data       210500                       # number of LoadLockedReq miss cycles
system.cpu.dcache.LoadLockedReq_miss_latency::total       210500                       # number of LoadLockedReq miss cycles
system.cpu.dcache.LoadLockedReq_accesses::.cpu.data           80                       # number of LoadLockedReq accesses(hits+misses)
system.cpu.dcache.LoadLockedReq_accesses::total           80                       # number of LoadLockedReq accesses(hits+misses)
system.cpu.dcache.LoadLockedReq_miss_rate::.cpu.data     0.025000                       # miss rate for LoadLockedReq accesses
system.cpu.dcache.LoadLockedReq_miss_rate::total     0.025000                       # miss rate for LoadLockedReq accesses
system.cpu.dcache.LoadLockedReq_avg_miss_latency::.cpu.data       105250                       # average LoadLockedReq miss latency
system.cpu.dcache.LoadLockedReq_avg_miss_latency::total       105250                       # average LoadLockedReq miss latency
system.cpu.dcache.LoadLockedReq_mshr_hits::.cpu.data            1                       # number of LoadLockedReq MSHR hits
system.cpu.dcache.LoadLockedReq_mshr_hits::total            1                       # number of LoadLockedReq MSHR hits
system.cpu.dcache.LoadLockedReq_mshr_misses::.cpu.data            1                       # number of LoadLockedReq MSHR misses
system.cpu.dcache.LoadLockedReq_mshr_misses::total            1                       # number of LoadLockedReq MSHR misses
system.cpu.dcache.LoadLockedReq_mshr_miss_latency::.cpu.data       108500                       # number of LoadLockedReq MSHR miss cycles
system.cpu.dcache.LoadLockedReq_mshr_miss_latency::total       108500                       # number of LoadLockedReq MSHR miss cycles
system.cpu.dcache.LoadLockedReq_mshr_miss_rate::.cpu.data     0.012500                       # mshr miss rate for LoadLockedReq accesses
system.cpu.dcache.LoadLockedReq_mshr_miss_rate::total     0.012500                       # mshr miss rate for LoadLockedReq accesses
system.cpu.dcache.LoadLockedReq_avg_mshr_miss_latency::.cpu.data       108500                       # average LoadLockedReq mshr miss latency
system.cpu.dcache.LoadLockedReq_avg_mshr_miss_latency::total       108500                       # average LoadLockedReq mshr miss latency
system.cpu.dcache.StoreCondReq_hits::.cpu.data           58                       # number of StoreCondReq hits
system.cpu.dcache.StoreCondReq_hits::total           58                       # number of StoreCondReq hits
system.cpu.dcache.StoreCondReq_accesses::.cpu.data           58                       # number of StoreCondReq accesses(hits+misses)
system.cpu.dcache.StoreCondReq_accesses::total           58                       # number of StoreCondReq accesses(hits+misses)
system.cpu.dcache.power_state.pwrStateResidencyTicks::UNDEFINED    421497500                       # Cumulative time (in ticks) in various power states
system.cpu.dcache.tags.tagsinuse           545.984230                       # Cycle average of tags in use
system.cpu.dcache.tags.total_refs              377552                       # Total number of references to valid blocks.
system.cpu.dcache.tags.sampled_refs              1663                       # Sample count of references to valid blocks.
system.cpu.dcache.tags.avg_refs            227.030667                       # Average number of references to valid blocks.
system.cpu.dcache.tags.warmup_cycle            176500                       # Cycle when the warmup percentage was hit.
system.cpu.dcache.tags.occ_blocks::.cpu.data   545.984230                       # Average occupied blocks per requestor
system.cpu.dcache.tags.occ_percent::.cpu.data     0.533188                       # Average percentage of cache occupancy
system.cpu.dcache.tags.occ_percent::total     0.533188                       # Average percentage of cache occupancy
system.cpu.dcache.tags.occ_task_id_blocks::1024          893                       # Occupied blocks per task id
system.cpu.dcache.tags.age_task_id_blocks_1024::0           24                       # Occupied blocks per task id
system.cpu.dcache.tags.age_task_id_blocks_1024::1          448                       # Occupied blocks per task id
system.cpu.dcache.tags.age_task_id_blocks_1024::2          421                       # Occupied blocks per task id
system.cpu.dcache.tags.occ_task_id_percent::1024     0.872070                       # Percentage of cache occupancy per task id
system.cpu.dcache.tags.tag_accesses            767061                       # Number of tag accesses
system.cpu.dcache.tags.data_accesses           767061                       # Number of data accesses
system.cpu.dcache.tags.power_state.pwrStateResidencyTicks::UNDEFINED    421497500                       # Cumulative time (in ticks) in various power states
system.cpu.power_state.pwrStateResidencyTicks::ON    421497500                       # Cumulative time (in ticks) in various power states

---------- End Simulation Statistics   ----------
