
---------- Begin Simulation Statistics ----------
final_tick                                 3157490500                       # Number of ticks from beginning of simulation (restored from checkpoints and never reset)
host_inst_rate                                 214888                       # Simulator instruction rate (inst/s)
host_mem_usage                                 901868                       # Number of bytes of host memory used
host_op_rate                                   242221                       # Simulator op (including micro ops) rate (op/s)
host_seconds                                    46.54                       # Real time elapsed on the host
host_tick_rate                               67850276                       # Simulator tick rate (ticks/s)
sim_freq                                 1000000000000                       # Frequency of simulated ticks
sim_insts                                    10000000                       # Number of instructions simulated
sim_ops                                      11272041                       # Number of ops (including micro ops) simulated
sim_seconds                                  0.003157                       # Number of seconds simulated
sim_ticks                                  3157490500                       # Number of ticks simulated
system.cpu.branchPred.BTBCorrect                    0                       # Number of correct BTB predictions (this stat may not work properly.
system.cpu.branchPred.BTBHitPct             99.667482                       # BTB Hit Percentage
system.cpu.branchPred.BTBHits                 1247800                       # Number of BTB hits
system.cpu.branchPred.BTBLookups              1251963                       # Number of BTB lookups
system.cpu.branchPred.RASInCorrect                 19                       # Number of incorrect RAS predictions.
system.cpu.branchPred.condIncorrect             19567                       # Number of conditional branches incorrect
system.cpu.branchPred.condPredicted           1888688                       # Number of conditional branches predicted
system.cpu.branchPred.indirectHits              99590                       # Number of indirect target hits.
system.cpu.branchPred.indirectLookups          100590                       # Number of indirect predictor lookups.
system.cpu.branchPred.indirectMisses             1000                       # Number of indirect misses.
system.cpu.branchPred.lookups                 2914631                       # Number of BP lookups
system.cpu.branchPred.usedRAS                  382581                       # Number of times the RAS was used to get a target.
system.cpu.branchPredindirectMispredicted          527                       # Number of mispredicted indirect branches.
system.cpu.cc_regfile_reads                   5062632                       # number of cc regfile reads
system.cpu.cc_regfile_writes                  3960771                       # number of cc regfile writes
system.cpu.commit.amos                              0                       # Number of atomic instructions committed
system.cpu.commit.branchMispredicts             17890                       # The number of times a branch was mispredicted
system.cpu.commit.branches                    2769411                       # Number of branches committed
system.cpu.commit.bw_lim_events                454806                       # number cycles where commit BW limit reached
system.cpu.commit.commitNonSpecStalls             540                       # The number of times commit has been forced to stall to communicate backwards
system.cpu.commit.commitSquashedInsts          590728                       # The number of squashed insts skipped by commit
system.cpu.commit.committedInsts             10003358                       # Number of instructions committed
system.cpu.commit.committedOps               11275399                       # Number of ops (including micro ops) committed
system.cpu.commit.committed_per_cycle::samples      6109133                       # Number of insts commited each cycle
system.cpu.commit.committed_per_cycle::mean     1.845663                       # Number of insts commited each cycle
system.cpu.commit.committed_per_cycle::stdev     2.403713                       # Number of insts commited each cycle
system.cpu.commit.committed_per_cycle::underflows            0      0.00%      0.00% # Number of insts commited each cycle
system.cpu.commit.committed_per_cycle::0      2642824     43.26%     43.26% # Number of insts commited each cycle
system.cpu.commit.committed_per_cycle::1      1022492     16.74%     60.00% # Number of insts commited each cycle
system.cpu.commit.committed_per_cycle::2       827525     13.55%     73.54% # Number of insts commited each cycle
system.cpu.commit.committed_per_cycle::3       333214      5.45%     79.00% # Number of insts commited each cycle
system.cpu.commit.committed_per_cycle::4       428749      7.02%     86.02% # Number of insts commited each cycle
system.cpu.commit.committed_per_cycle::5       203506      3.33%     89.35% # Number of insts commited each cycle
system.cpu.commit.committed_per_cycle::6       144878      2.37%     91.72% # Number of insts commited each cycle
system.cpu.commit.committed_per_cycle::7        51139      0.84%     92.56% # Number of insts commited each cycle
system.cpu.commit.committed_per_cycle::8       454806      7.44%    100.00% # Number of insts commited each cycle
system.cpu.commit.committed_per_cycle::overflows            0      0.00%    100.00% # Number of insts commited each cycle
system.cpu.commit.committed_per_cycle::min_value            0                       # Number of insts commited each cycle
system.cpu.commit.committed_per_cycle::max_value            8                       # Number of insts commited each cycle
system.cpu.commit.committed_per_cycle::total      6109133                       # Number of insts commited each cycle
system.cpu.commit.fp_insts                          0                       # Number of committed floating point instructions.
system.cpu.commit.function_calls               374505                       # Number of function calls committed.
system.cpu.commit.int_insts                   9770223                       # Number of committed integer instructions.
system.cpu.commit.loads                       1155697                       # Number of loads committed
system.cpu.commit.membars                         532                       # Number of memory barriers committed
system.cpu.commit.op_class_0::No_OpClass           12      0.00%      0.00% # Class of committed instruction
system.cpu.commit.op_class_0::IntAlu          9136842     81.03%     81.03% # Class of committed instruction
system.cpu.commit.op_class_0::IntMult           40054      0.36%     81.39% # Class of committed instruction
system.cpu.commit.op_class_0::IntDiv               22      0.00%     81.39% # Class of committed instruction
system.cpu.commit.op_class_0::FloatAdd              0      0.00%     81.39% # Class of committed instruction
system.cpu.commit.op_class_0::FloatCmp              0      0.00%     81.39% # Class of committed instruction
system.cpu.commit.op_class_0::FloatCvt              0      0.00%     81.39% # Class of committed instruction
system.cpu.commit.op_class_0::FloatMult             0      0.00%     81.39% # Class of committed instruction
system.cpu.commit.op_class_0::FloatMultAcc            0      0.00%     81.39% # Class of committed instruction
system.cpu.commit.op_class_0::FloatDiv              0      0.00%     81.39% # Class of committed instruction
system.cpu.commit.op_class_0::FloatMisc             1      0.00%     81.39% # Class of committed instruction
system.cpu.commit.op_class_0::FloatSqrt             0      0.00%     81.39% # Class of committed instruction
system.cpu.commit.op_class_0::SimdAdd              38      0.00%     81.39% # Class of committed instruction
system.cpu.commit.op_class_0::SimdAddAcc            0      0.00%     81.39% # Class of committed instruction
system.cpu.commit.op_class_0::SimdAlu              47      0.00%     81.39% # Class of committed instruction
system.cpu.commit.op_class_0::SimdCmp              49      0.00%     81.39% # Class of committed instruction
system.cpu.commit.op_class_0::SimdCvt               0      0.00%     81.39% # Class of committed instruction
system.cpu.commit.op_class_0::SimdMisc             47      0.00%     81.39% # Class of committed instruction
system.cpu.commit.op_class_0::SimdMult              0      0.00%     81.39% # Class of committed instruction
system.cpu.commit.op_class_0::SimdMultAcc            0      0.00%     81.39% # Class of committed instruction
system.cpu.commit.op_class_0::SimdShift             0      0.00%     81.39% # Class of committed instruction
system.cpu.commit.op_class_0::SimdShiftAcc            0      0.00%     81.39% # Class of committed instruction
system.cpu.commit.op_class_0::SimdDiv               0      0.00%     81.39% # Class of committed instruction
system.cpu.commit.op_class_0::SimdSqrt              0      0.00%     81.39% # Class of committed instruction
system.cpu.commit.op_class_0::SimdFloatAdd            0      0.00%     81.39% # Class of committed instruction
system.cpu.commit.op_class_0::SimdFloatAlu            0      0.00%     81.39% # Class of committed instruction
system.cpu.commit.op_class_0::SimdFloatCmp            0      0.00%     81.39% # Class of committed instruction
system.cpu.commit.op_class_0::SimdFloatCvt            0      0.00%     81.39% # Class of committed instruction
system.cpu.commit.op_class_0::SimdFloatDiv            0      0.00%     81.39% # Class of committed instruction
system.cpu.commit.op_class_0::SimdFloatMisc            0      0.00%     81.39% # Class of committed instruction
system.cpu.commit.op_class_0::SimdFloatMult            0      0.00%     81.39% # Class of committed instruction
system.cpu.commit.op_class_0::SimdFloatMultAcc            0      0.00%     81.39% # Class of committed instruction
system.cpu.commit.op_class_0::SimdFloatSqrt            0      0.00%     81.39% # Class of committed instruction
system.cpu.commit.op_class_0::SimdReduceAdd            0      0.00%     81.39% # Class of committed instruction
system.cpu.commit.op_class_0::SimdReduceAlu            0      0.00%     81.39% # Class of committed instruction
system.cpu.commit.op_class_0::SimdReduceCmp            0      0.00%     81.39% # Class of committed instruction
system.cpu.commit.op_class_0::SimdFloatReduceAdd            0      0.00%     81.39% # Class of committed instruction
system.cpu.commit.op_class_0::SimdFloatReduceCmp            0      0.00%     81.39% # Class of committed instruction
system.cpu.commit.op_class_0::SimdAes               0      0.00%     81.39% # Class of committed instruction
system.cpu.commit.op_class_0::SimdAesMix            0      0.00%     81.39% # Class of committed instruction
system.cpu.commit.op_class_0::SimdSha1Hash            0      0.00%     81.39% # Class of committed instruction
system.cpu.commit.op_class_0::SimdSha1Hash2            0      0.00%     81.39% # Class of committed instruction
system.cpu.commit.op_class_0::SimdSha256Hash            0      0.00%     81.39% # Class of committed instruction
system.cpu.commit.op_class_0::SimdSha256Hash2            0      0.00%     81.39% # Class of committed instruction
system.cpu.commit.op_class_0::SimdShaSigma2            0      0.00%     81.39% # Class of committed instruction
system.cpu.commit.op_class_0::SimdShaSigma3            0      0.00%     81.39% # Class of committed instruction
system.cpu.commit.op_class_0::SimdPredAlu            0      0.00%     81.39% # Class of committed instruction
system.cpu.commit.op_class_0::MemRead         1155697     10.25%     91.64% # Class of committed instruction
system.cpu.commit.op_class_0::MemWrite         942590      8.36%    100.00% # Class of committed instruction
system.cpu.commit.op_class_0::FloatMemRead            0      0.00%    100.00% # Class of committed instruction
system.cpu.commit.op_class_0::FloatMemWrite            0      0.00%    100.00% # Class of committed instruction
system.cpu.commit.op_class_0::IprAccess             0      0.00%    100.00% # Class of committed instruction
system.cpu.commit.op_class_0::InstPrefetch            0      0.00%    100.00% # Class of committed instruction
system.cpu.commit.op_class_0::total          11275399                       # Class of committed instruction
system.cpu.commit.refs                        2098287                       # Number of memory references committed
system.cpu.commit.swp_count                         0                       # Number of s/w prefetches committed
system.cpu.commit.vec_insts                       699                       # Number of committed Vector instructions.
system.cpu.committedInsts                    10000000                       # Number of Instructions Simulated
system.cpu.committedOps                      11272041                       # Number of Ops (including micro ops) Simulated
system.cpu.cpi                               0.631498                       # CPI: Cycles Per Instruction
system.cpu.cpi_total                         0.631498                       # CPI: Total CPI of All Threads
system.cpu.decode.BlockedCycles                673330                       # Number of cycles decode is blocked
system.cpu.decode.BranchMispred                  1684                       # Number of times decode detected a branch misprediction
system.cpu.decode.BranchResolved              1236932                       # Number of times decode resolved a branch
system.cpu.decode.DecodedInsts               11992006                       # Number of instructions handled by decode
system.cpu.decode.IdleCycles                  2533373                       # Number of cycles decode is idle
system.cpu.decode.RunCycles                   2912755                       # Number of cycles decode is running
system.cpu.decode.SquashCycles                  17977                       # Number of cycles decode is squashing
system.cpu.decode.SquashedInsts                  7417                       # Number of squashed instructions handled by decode
system.cpu.decode.UnblockCycles                 53310                       # Number of cycles decode is unblocking
system.cpu.dtb.accesses                             0                       # DTB accesses
system.cpu.dtb.align_faults                         0                       # Number of TLB faults due to alignment restrictions
system.cpu.dtb.domain_faults                        0                       # Number of TLB faults due to domain restrictions
system.cpu.dtb.flush_entries                        0                       # Number of entries that have been flushed from TLB
system.cpu.dtb.flush_tlb                            0                       # Number of times complete TLB was flushed
system.cpu.dtb.flush_tlb_asid                       0                       # Number of times TLB was flushed by ASID
system.cpu.dtb.flush_tlb_mva                        0                       # Number of times TLB was flushed by MVA
system.cpu.dtb.flush_tlb_mva_asid                   0                       # Number of times TLB was flushed by MVA & ASID
system.cpu.dtb.hits                                 0                       # DTB hits
system.cpu.dtb.inst_accesses                        0                       # ITB inst accesses
system.cpu.dtb.inst_hits                            0                       # ITB inst hits
system.cpu.dtb.inst_misses                          0                       # ITB inst misses
system.cpu.dtb.misses                               0                       # DTB misses
system.cpu.dtb.perms_faults                         0                       # Number of TLB faults due to permissions restrictions
system.cpu.dtb.prefetch_faults                      0                       # Number of TLB faults due to prefetch
system.cpu.dtb.read_accesses                        0                       # DTB read accesses
system.cpu.dtb.read_hits                            0                       # DTB read hits
system.cpu.dtb.read_misses                          0                       # DTB read misses
system.cpu.dtb.stage2_mmu.stage2_tlb.accesses            0                       # DTB accesses
system.cpu.dtb.stage2_mmu.stage2_tlb.align_faults            0                       # Number of TLB faults due to alignment restrictions
system.cpu.dtb.stage2_mmu.stage2_tlb.domain_faults            0                       # Number of TLB faults due to domain restrictions
system.cpu.dtb.stage2_mmu.stage2_tlb.flush_entries            0                       # Number of entries that have been flushed from TLB
system.cpu.dtb.stage2_mmu.stage2_tlb.flush_tlb            0                       # Number of times complete TLB was flushed
system.cpu.dtb.stage2_mmu.stage2_tlb.flush_tlb_asid            0                       # Number of times TLB was flushed by ASID
system.cpu.dtb.stage2_mmu.stage2_tlb.flush_tlb_mva            0                       # Number of times TLB was flushed by MVA
system.cpu.dtb.stage2_mmu.stage2_tlb.flush_tlb_mva_asid            0                       # Number of times TLB was flushed by MVA & ASID
system.cpu.dtb.stage2_mmu.stage2_tlb.hits            0                       # DTB hits
system.cpu.dtb.stage2_mmu.stage2_tlb.inst_accesses            0                       # ITB inst accesses
system.cpu.dtb.stage2_mmu.stage2_tlb.inst_hits            0                       # ITB inst hits
system.cpu.dtb.stage2_mmu.stage2_tlb.inst_misses            0                       # ITB inst misses
system.cpu.dtb.stage2_mmu.stage2_tlb.misses            0                       # DTB misses
system.cpu.dtb.stage2_mmu.stage2_tlb.perms_faults            0                       # Number of TLB faults due to permissions restrictions
system.cpu.dtb.stage2_mmu.stage2_tlb.prefetch_faults            0                       # Number of TLB faults due to prefetch
system.cpu.dtb.stage2_mmu.stage2_tlb.read_accesses            0                       # DTB read accesses
system.cpu.dtb.stage2_mmu.stage2_tlb.read_hits            0                       # DTB read hits
system.cpu.dtb.stage2_mmu.stage2_tlb.read_misses            0                       # DTB read misses
system.cpu.dtb.stage2_mmu.stage2_tlb.walker.walkRequestOrigin_Requested::Data            0                       # Table walker requests started/completed, data/inst
system.cpu.dtb.stage2_mmu.stage2_tlb.walker.walkRequestOrigin_Requested::Inst            0                       # Table walker requests started/completed, data/inst
system.cpu.dtb.stage2_mmu.stage2_tlb.walker.walkRequestOrigin_Requested::total            0                       # Table walker requests started/completed, data/inst
system.cpu.dtb.stage2_mmu.stage2_tlb.walker.walkRequestOrigin_Completed::Data            0                       # Table walker requests started/completed, data/inst
system.cpu.dtb.stage2_mmu.stage2_tlb.walker.walkRequestOrigin_Completed::Inst            0                       # Table walker requests started/completed, data/inst
system.cpu.dtb.stage2_mmu.stage2_tlb.walker.walkRequestOrigin_Completed::total            0                       # Table walker requests started/completed, data/inst
system.cpu.dtb.stage2_mmu.stage2_tlb.walker.walkRequestOrigin::total            0                       # Table walker requests started/completed, data/inst
system.cpu.dtb.stage2_mmu.stage2_tlb.walker.walks            0                       # Table walker walks requested
system.cpu.dtb.stage2_mmu.stage2_tlb.write_accesses            0                       # DTB write accesses
system.cpu.dtb.stage2_mmu.stage2_tlb.write_hits            0                       # DTB write hits
system.cpu.dtb.stage2_mmu.stage2_tlb.write_misses            0                       # DTB write misses
system.cpu.dtb.walker.walkRequestOrigin_Requested::Data            0                       # Table walker requests started/completed, data/inst
system.cpu.dtb.walker.walkRequestOrigin_Requested::Inst            0                       # Table walker requests started/completed, data/inst
system.cpu.dtb.walker.walkRequestOrigin_Requested::total            0                       # Table walker requests started/completed, data/inst
system.cpu.dtb.walker.walkRequestOrigin_Completed::Data            0                       # Table walker requests started/completed, data/inst
system.cpu.dtb.walker.walkRequestOrigin_Completed::Inst            0                       # Table walker requests started/completed, data/inst
system.cpu.dtb.walker.walkRequestOrigin_Completed::total            0                       # Table walker requests started/completed, data/inst
system.cpu.dtb.walker.walkRequestOrigin::total            0                       # Table walker requests started/completed, data/inst
system.cpu.dtb.walker.walks                         0                       # Table walker walks requested
system.cpu.dtb.write_accesses                       0                       # DTB write accesses
system.cpu.dtb.write_hits                           0                       # DTB write hits
system.cpu.dtb.write_misses                         0                       # DTB write misses
system.cpu.fetch.Branches                     2914631                       # Number of branches that fetch encountered
system.cpu.fetch.CacheLines                   2494495                       # Number of cache lines fetched
system.cpu.fetch.Cycles                       3512234                       # Number of cycles fetch has run and was not squashing or blocked
system.cpu.fetch.IcacheSquashes                  6257                       # Number of outstanding Icache misses that were squashed
system.cpu.fetch.Insts                       10678361                       # Number of instructions fetch has processed
system.cpu.fetch.SquashCycles                   39308                       # Number of cycles fetch has spent squashing
system.cpu.fetch.branchRate                  0.461542                       # Number of branch fetches per cycle
system.cpu.fetch.icacheStallCycles            2658857                       # Number of cycles fetch is stalled on an Icache miss
system.cpu.fetch.predictedBranches            1729971                       # Number of branches that fetch has predicted taken
system.cpu.fetch.rate                        1.690956                       # Number of inst fetches per cycle
system.cpu.fetch.rateDist::samples            6190745                       # Number of instructions fetched each cycle (Total)
system.cpu.fetch.rateDist::mean              1.949462                       # Number of instructions fetched each cycle (Total)
system.cpu.fetch.rateDist::stdev             2.605534                       # Number of instructions fetched each cycle (Total)
system.cpu.fetch.rateDist::underflows               0      0.00%      0.00% # Number of instructions fetched each cycle (Total)
system.cpu.fetch.rateDist::0                  3147636     50.84%     50.84% # Number of instructions fetched each cycle (Total)
system.cpu.fetch.rateDist::1                   356400      5.76%     56.60% # Number of instructions fetched each cycle (Total)
system.cpu.fetch.rateDist::2                   842712     13.61%     70.21% # Number of instructions fetched each cycle (Total)
system.cpu.fetch.rateDist::3                   479091      7.74%     77.95% # Number of instructions fetched each cycle (Total)
system.cpu.fetch.rateDist::4                   326089      5.27%     83.22% # Number of instructions fetched each cycle (Total)
system.cpu.fetch.rateDist::5                   132627      2.14%     85.36% # Number of instructions fetched each cycle (Total)
system.cpu.fetch.rateDist::6                   199520      3.22%     88.59% # Number of instructions fetched each cycle (Total)
system.cpu.fetch.rateDist::7                   228446      3.69%     92.28% # Number of instructions fetched each cycle (Total)
system.cpu.fetch.rateDist::8                   478224      7.72%    100.00% # Number of instructions fetched each cycle (Total)
system.cpu.fetch.rateDist::overflows                0      0.00%    100.00% # Number of instructions fetched each cycle (Total)
system.cpu.fetch.rateDist::min_value                0                       # Number of instructions fetched each cycle (Total)
system.cpu.fetch.rateDist::max_value                8                       # Number of instructions fetched each cycle (Total)
system.cpu.fetch.rateDist::total              6190745                       # Number of instructions fetched each cycle (Total)
system.cpu.icache.prefetcher.num_hwpf_issued            0                       # number of hwpf issued
system.cpu.icache.prefetcher.pfBufferHit            0                       # number of redundant prefetches already in prefetch queue
system.cpu.icache.prefetcher.pfIdentified            0                       # number of prefetch candidates identified
system.cpu.icache.prefetcher.pfInCache              0                       # number of redundant prefetches already in cache/mshr dropped
system.cpu.icache.prefetcher.pfRemovedFull            0                       # number of prefetches dropped due to prefetch queue size
system.cpu.icache.prefetcher.pfSpanPage             0                       # number of prefetches that crossed the page
system.cpu.idleCycles                          124238                       # Total number of cycles that the CPU has spent unscheduled due to idling
system.cpu.iew.branchMispredicts                19957                       # Number of branch mispredicts detected at execute
system.cpu.iew.exec_branches                  2842496                       # Number of branches executed
system.cpu.iew.exec_nop                          4049                       # number of nop insts executed
system.cpu.iew.exec_rate                     1.878216                       # Inst execution rate
system.cpu.iew.exec_refs                      2308224                       # number of memory reference insts executed
system.cpu.iew.exec_stores                    1011599                       # Number of stores executed
system.cpu.iew.exec_swp                             0                       # number of swp insts executed
system.cpu.iew.iewBlockCycles                  300945                       # Number of cycles IEW is blocking
system.cpu.iew.iewDispLoadInsts               1217022                       # Number of dispatched load instructions
system.cpu.iew.iewDispNonSpecInsts                585                       # Number of dispatched non-speculative instructions
system.cpu.iew.iewDispSquashedInsts               606                       # Number of squashed instructions skipped by dispatch
system.cpu.iew.iewDispStoreInsts              1027437                       # Number of dispatched store instructions
system.cpu.iew.iewDispatchedInsts            11866682                       # Number of instructions dispatched to IQ
system.cpu.iew.iewExecLoadInsts               1296625                       # Number of load instructions executed
system.cpu.iew.iewExecSquashedInsts             24006                       # Number of squashed instructions skipped in execute
system.cpu.iew.iewExecutedInsts              11860905                       # Number of executed instructions
system.cpu.iew.iewIQFullEvents                   1417                       # Number of times the IQ has become full, causing a stall
system.cpu.iew.iewIdleCycles                        0                       # Number of cycles IEW is idle
system.cpu.iew.iewLSQFullEvents                   786                       # Number of times the LSQ has become full, causing a stall
system.cpu.iew.iewSquashCycles                  17977                       # Number of cycles IEW is squashing
system.cpu.iew.iewUnblockCycles                  5146                       # Number of cycles IEW is unblocking
system.cpu.iew.lsq.thread0.blockedLoads             0                       # Number of blocked loads due to partial load-store forwarding
system.cpu.iew.lsq.thread0.cacheBlocked             0                       # Number of times an access to memory failed due to the cache being blocked
system.cpu.iew.lsq.thread0.forwLoads             9938                       # Number of loads that had data forwarded from stores
system.cpu.iew.lsq.thread0.ignoredResponses            9                       # Number of memory responses ignored because the instruction is squashed
system.cpu.iew.lsq.thread0.invAddrLoads             0                       # Number of loads ignored due to an invalid address
system.cpu.iew.lsq.thread0.invAddrSwpfs             0                       # Number of software prefetches ignored due to an invalid address
system.cpu.iew.lsq.thread0.memOrderViolation           47                       # Number of memory ordering violations
system.cpu.iew.lsq.thread0.rescheduledLoads        86291                       # Number of loads that were rescheduled
system.cpu.iew.lsq.thread0.squashedLoads        61324                       # Number of loads squashed
system.cpu.iew.lsq.thread0.squashedStores        84847                       # Number of stores squashed
system.cpu.iew.memOrderViolationEvents             47                       # Number of memory order violations
system.cpu.iew.predictedNotTakenIncorrect        14175                       # Number of branches that were predicted not taken incorrectly
system.cpu.iew.predictedTakenIncorrect           5782                       # Number of branches that were predicted taken incorrectly
system.cpu.iew.wb_consumers                  10930516                       # num instructions consuming a value
system.cpu.iew.wb_count                      11760921                       # cumulative count of insts written-back
system.cpu.iew.wb_fanout                     0.504354                       # average fanout of values written-back
system.cpu.iew.wb_producers                   5512848                       # num instructions producing a value
system.cpu.iew.wb_rate                       1.862384                       # insts written-back per cycle
system.cpu.iew.wb_sent                       11766515                       # cumulative count of insts sent to commit
system.cpu.int_regfile_reads                 13402541                       # number of integer regfile reads
system.cpu.int_regfile_writes                 8697205                       # number of integer regfile writes
system.cpu.ipc                               1.583536                       # IPC: Instructions Per Cycle
system.cpu.ipc_total                         1.583536                       # IPC: Total IPC of All Threads
system.cpu.iq.FU_type_0::No_OpClass                15      0.00%      0.00% # Type of FU issued
system.cpu.iq.FU_type_0::IntAlu               9531577     80.20%     80.20% # Type of FU issued
system.cpu.iq.FU_type_0::IntMult                40060      0.34%     80.54% # Type of FU issued
system.cpu.iq.FU_type_0::IntDiv                    26      0.00%     80.54% # Type of FU issued
system.cpu.iq.FU_type_0::FloatAdd                   0      0.00%     80.54% # Type of FU issued
system.cpu.iq.FU_type_0::FloatCmp                   0      0.00%     80.54% # Type of FU issued
system.cpu.iq.FU_type_0::FloatCvt                   0      0.00%     80.54% # Type of FU issued
system.cpu.iq.FU_type_0::FloatMult                  0      0.00%     80.54% # Type of FU issued
system.cpu.iq.FU_type_0::FloatMultAcc               0      0.00%     80.54% # Type of FU issued
system.cpu.iq.FU_type_0::FloatDiv                   0      0.00%     80.54% # Type of FU issued
system.cpu.iq.FU_type_0::FloatMisc                  1      0.00%     80.54% # Type of FU issued
system.cpu.iq.FU_type_0::FloatSqrt                  0      0.00%     80.54% # Type of FU issued
system.cpu.iq.FU_type_0::SimdAdd                   50      0.00%     80.54% # Type of FU issued
system.cpu.iq.FU_type_0::SimdAddAcc                 0      0.00%     80.54% # Type of FU issued
system.cpu.iq.FU_type_0::SimdAlu                   61      0.00%     80.54% # Type of FU issued
system.cpu.iq.FU_type_0::SimdCmp                   61      0.00%     80.54% # Type of FU issued
system.cpu.iq.FU_type_0::SimdCvt                    0      0.00%     80.54% # Type of FU issued
system.cpu.iq.FU_type_0::SimdMisc                  54      0.00%     80.54% # Type of FU issued
system.cpu.iq.FU_type_0::SimdMult                   0      0.00%     80.54% # Type of FU issued
system.cpu.iq.FU_type_0::SimdMultAcc                0      0.00%     80.54% # Type of FU issued
system.cpu.iq.FU_type_0::SimdShift                  0      0.00%     80.54% # Type of FU issued
system.cpu.iq.FU_type_0::SimdShiftAcc               0      0.00%     80.54% # Type of FU issued
system.cpu.iq.FU_type_0::SimdDiv                    0      0.00%     80.54% # Type of FU issued
system.cpu.iq.FU_type_0::SimdSqrt                   0      0.00%     80.54% # Type of FU issued
system.cpu.iq.FU_type_0::SimdFloatAdd               0      0.00%     80.54% # Type of FU issued
system.cpu.iq.FU_type_0::SimdFloatAlu               0      0.00%     80.54% # Type of FU issued
system.cpu.iq.FU_type_0::SimdFloatCmp               0      0.00%     80.54% # Type of FU issued
system.cpu.iq.FU_type_0::SimdFloatCvt               0      0.00%     80.54% # Type of FU issued
system.cpu.iq.FU_type_0::SimdFloatDiv               0      0.00%     80.54% # Type of FU issued
system.cpu.iq.FU_type_0::SimdFloatMisc              0      0.00%     80.54% # Type of FU issued
system.cpu.iq.FU_type_0::SimdFloatMult              0      0.00%     80.54% # Type of FU issued
system.cpu.iq.FU_type_0::SimdFloatMultAcc            0      0.00%     80.54% # Type of FU issued
system.cpu.iq.FU_type_0::SimdFloatSqrt              0      0.00%     80.54% # Type of FU issued
system.cpu.iq.FU_type_0::SimdReduceAdd              0      0.00%     80.54% # Type of FU issued
system.cpu.iq.FU_type_0::SimdReduceAlu              0      0.00%     80.54% # Type of FU issued
system.cpu.iq.FU_type_0::SimdReduceCmp              0      0.00%     80.54% # Type of FU issued
system.cpu.iq.FU_type_0::SimdFloatReduceAdd            0      0.00%     80.54% # Type of FU issued
system.cpu.iq.FU_type_0::SimdFloatReduceCmp            0      0.00%     80.54% # Type of FU issued
system.cpu.iq.FU_type_0::SimdAes                    0      0.00%     80.54% # Type of FU issued
system.cpu.iq.FU_type_0::SimdAesMix                 0      0.00%     80.54% # Type of FU issued
system.cpu.iq.FU_type_0::SimdSha1Hash               0      0.00%     80.54% # Type of FU issued
system.cpu.iq.FU_type_0::SimdSha1Hash2              0      0.00%     80.54% # Type of FU issued
system.cpu.iq.FU_type_0::SimdSha256Hash             0      0.00%     80.54% # Type of FU issued
system.cpu.iq.FU_type_0::SimdSha256Hash2            0      0.00%     80.54% # Type of FU issued
system.cpu.iq.FU_type_0::SimdShaSigma2              0      0.00%     80.54% # Type of FU issued
system.cpu.iq.FU_type_0::SimdShaSigma3              0      0.00%     80.54% # Type of FU issued
system.cpu.iq.FU_type_0::SimdPredAlu                0      0.00%     80.54% # Type of FU issued
system.cpu.iq.FU_type_0::MemRead              1298154     10.92%     91.46% # Type of FU issued
system.cpu.iq.FU_type_0::MemWrite             1014855      8.54%    100.00% # Type of FU issued
system.cpu.iq.FU_type_0::FloatMemRead               0      0.00%    100.00% # Type of FU issued
system.cpu.iq.FU_type_0::FloatMemWrite              0      0.00%    100.00% # Type of FU issued
system.cpu.iq.FU_type_0::IprAccess                  0      0.00%    100.00% # Type of FU issued
system.cpu.iq.FU_type_0::InstPrefetch               0      0.00%    100.00% # Type of FU issued
system.cpu.iq.FU_type_0::total               11884914                       # Type of FU issued
system.cpu.iq.fp_alu_accesses                       0                       # Number of floating point alu accesses
system.cpu.iq.fp_inst_queue_reads                   0                       # Number of floating instruction queue reads
system.cpu.iq.fp_inst_queue_wakeup_accesses            0                       # Number of floating instruction queue wakeup accesses
system.cpu.iq.fp_inst_queue_writes                  0                       # Number of floating instruction queue writes
system.cpu.iq.fu_busy_cnt                       37455                       # FU busy when requested
system.cpu.iq.fu_busy_rate                   0.003151                       # FU busy rate (busy events/executed inst)
system.cpu.iq.fu_full::No_OpClass                   0      0.00%      0.00% # attempts to use FU when none available
system.cpu.iq.fu_full::IntAlu                   27787     74.19%     74.19% # attempts to use FU when none available
system.cpu.iq.fu_full::IntMult                      0      0.00%     74.19% # attempts to use FU when none available
system.cpu.iq.fu_full::IntDiv                       0      0.00%     74.19% # attempts to use FU when none available
system.cpu.iq.fu_full::FloatAdd                     0      0.00%     74.19% # attempts to use FU when none available
system.cpu.iq.fu_full::FloatCmp                     0      0.00%     74.19% # attempts to use FU when none available
system.cpu.iq.fu_full::FloatCvt                     0      0.00%     74.19% # attempts to use FU when none available
system.cpu.iq.fu_full::FloatMult                    0      0.00%     74.19% # attempts to use FU when none available
system.cpu.iq.fu_full::FloatMultAcc                 0      0.00%     74.19% # attempts to use FU when none available
system.cpu.iq.fu_full::FloatDiv                     0      0.00%     74.19% # attempts to use FU when none available
system.cpu.iq.fu_full::FloatMisc                    0      0.00%     74.19% # attempts to use FU when none available
system.cpu.iq.fu_full::FloatSqrt                    0      0.00%     74.19% # attempts to use FU when none available
system.cpu.iq.fu_full::SimdAdd                      0      0.00%     74.19% # attempts to use FU when none available
system.cpu.iq.fu_full::SimdAddAcc                   0      0.00%     74.19% # attempts to use FU when none available
system.cpu.iq.fu_full::SimdAlu                      1      0.00%     74.19% # attempts to use FU when none available
system.cpu.iq.fu_full::SimdCmp                      4      0.01%     74.20% # attempts to use FU when none available
system.cpu.iq.fu_full::SimdCvt                      0      0.00%     74.20% # attempts to use FU when none available
system.cpu.iq.fu_full::SimdMisc                     0      0.00%     74.20% # attempts to use FU when none available
system.cpu.iq.fu_full::SimdMult                     0      0.00%     74.20% # attempts to use FU when none available
system.cpu.iq.fu_full::SimdMultAcc                  0      0.00%     74.20% # attempts to use FU when none available
system.cpu.iq.fu_full::SimdShift                    0      0.00%     74.20% # attempts to use FU when none available
system.cpu.iq.fu_full::SimdShiftAcc                 0      0.00%     74.20% # attempts to use FU when none available
system.cpu.iq.fu_full::SimdDiv                      0      0.00%     74.20% # attempts to use FU when none available
system.cpu.iq.fu_full::SimdSqrt                     0      0.00%     74.20% # attempts to use FU when none available
system.cpu.iq.fu_full::SimdFloatAdd                 0      0.00%     74.20% # attempts to use FU when none available
system.cpu.iq.fu_full::SimdFloatAlu                 0      0.00%     74.20% # attempts to use FU when none available
system.cpu.iq.fu_full::SimdFloatCmp                 0      0.00%     74.20% # attempts to use FU when none available
system.cpu.iq.fu_full::SimdFloatCvt                 0      0.00%     74.20% # attempts to use FU when none available
system.cpu.iq.fu_full::SimdFloatDiv                 0      0.00%     74.20% # attempts to use FU when none available
system.cpu.iq.fu_full::SimdFloatMisc                0      0.00%     74.20% # attempts to use FU when none available
system.cpu.iq.fu_full::SimdFloatMult                0      0.00%     74.20% # attempts to use FU when none available
system.cpu.iq.fu_full::SimdFloatMultAcc             0      0.00%     74.20% # attempts to use FU when none available
system.cpu.iq.fu_full::SimdFloatSqrt                0      0.00%     74.20% # attempts to use FU when none available
system.cpu.iq.fu_full::SimdReduceAdd                0      0.00%     74.20% # attempts to use FU when none available
system.cpu.iq.fu_full::SimdReduceAlu                0      0.00%     74.20% # attempts to use FU when none available
system.cpu.iq.fu_full::SimdReduceCmp                0      0.00%     74.20% # attempts to use FU when none available
system.cpu.iq.fu_full::SimdFloatReduceAdd            0      0.00%     74.20% # attempts to use FU when none available
system.cpu.iq.fu_full::SimdFloatReduceCmp            0      0.00%     74.20% # attempts to use FU when none available
system.cpu.iq.fu_full::SimdAes                      0      0.00%     74.20% # attempts to use FU when none available
system.cpu.iq.fu_full::SimdAesMix                   0      0.00%     74.20% # attempts to use FU when none available
system.cpu.iq.fu_full::SimdSha1Hash                 0      0.00%     74.20% # attempts to use FU when none available
system.cpu.iq.fu_full::SimdSha1Hash2                0      0.00%     74.20% # attempts to use FU when none available
system.cpu.iq.fu_full::SimdSha256Hash               0      0.00%     74.20% # attempts to use FU when none available
system.cpu.iq.fu_full::SimdSha256Hash2              0      0.00%     74.20% # attempts to use FU when none available
system.cpu.iq.fu_full::SimdShaSigma2                0      0.00%     74.20% # attempts to use FU when none available
system.cpu.iq.fu_full::SimdShaSigma3                0      0.00%     74.20% # attempts to use FU when none available
system.cpu.iq.fu_full::SimdPredAlu                  0      0.00%     74.20% # attempts to use FU when none available
system.cpu.iq.fu_full::MemRead                   1364      3.64%     77.84% # attempts to use FU when none available
system.cpu.iq.fu_full::MemWrite                  8299     22.16%    100.00% # attempts to use FU when none available
system.cpu.iq.fu_full::FloatMemRead                 0      0.00%    100.00% # attempts to use FU when none available
system.cpu.iq.fu_full::FloatMemWrite                0      0.00%    100.00% # attempts to use FU when none available
system.cpu.iq.fu_full::IprAccess                    0      0.00%    100.00% # attempts to use FU when none available
system.cpu.iq.fu_full::InstPrefetch                 0      0.00%    100.00% # attempts to use FU when none available
system.cpu.iq.int_alu_accesses               11921411                       # Number of integer alu accesses
system.cpu.iq.int_inst_queue_reads           29996380                       # Number of integer instruction queue reads
system.cpu.iq.int_inst_queue_wakeup_accesses     11760103                       # Number of integer instruction queue wakeup accesses
system.cpu.iq.int_inst_queue_writes          12451843                       # Number of integer instruction queue writes
system.cpu.iq.iqInstsAdded                   11862048                       # Number of instructions added to the IQ (excludes non-spec)
system.cpu.iq.iqInstsIssued                  11884914                       # Number of instructions issued
system.cpu.iq.iqNonSpecInstsAdded                 585                       # Number of non-speculative instructions added to the IQ
system.cpu.iq.iqSquashedInstsExamined          590580                       # Number of squashed instructions iterated over during squash; mainly for profiling
system.cpu.iq.iqSquashedInstsIssued               289                       # Number of squashed instructions issued
system.cpu.iq.iqSquashedNonSpecRemoved             45                       # Number of squashed non-spec instructions that were removed
system.cpu.iq.iqSquashedOperandsExamined       141614                       # Number of squashed operands that are examined and possibly removed from graph
system.cpu.iq.issued_per_cycle::samples       6190745                       # Number of insts issued each cycle
system.cpu.iq.issued_per_cycle::mean         1.919787                       # Number of insts issued each cycle
system.cpu.iq.issued_per_cycle::stdev        1.812279                       # Number of insts issued each cycle
system.cpu.iq.issued_per_cycle::underflows            0      0.00%      0.00% # Number of insts issued each cycle
system.cpu.iq.issued_per_cycle::0             1551422     25.06%     25.06% # Number of insts issued each cycle
system.cpu.iq.issued_per_cycle::1             1482624     23.95%     49.01% # Number of insts issued each cycle
system.cpu.iq.issued_per_cycle::2             1320737     21.33%     70.34% # Number of insts issued each cycle
system.cpu.iq.issued_per_cycle::3              803058     12.97%     83.32% # Number of insts issued each cycle
system.cpu.iq.issued_per_cycle::4              356873      5.76%     89.08% # Number of insts issued each cycle
system.cpu.iq.issued_per_cycle::5              347524      5.61%     94.69% # Number of insts issued each cycle
system.cpu.iq.issued_per_cycle::6              178196      2.88%     97.57% # Number of insts issued each cycle
system.cpu.iq.issued_per_cycle::7               85134      1.38%     98.95% # Number of insts issued each cycle
system.cpu.iq.issued_per_cycle::8               65177      1.05%    100.00% # Number of insts issued each cycle
system.cpu.iq.issued_per_cycle::overflows            0      0.00%    100.00% # Number of insts issued each cycle
system.cpu.iq.issued_per_cycle::min_value            0                       # Number of insts issued each cycle
system.cpu.iq.issued_per_cycle::max_value            8                       # Number of insts issued each cycle
system.cpu.iq.issued_per_cycle::total         6190745                       # Number of insts issued each cycle
system.cpu.iq.rate                           1.882018                       # Inst issue rate
system.cpu.iq.vec_alu_accesses                    943                       # Number of vector alu accesses
system.cpu.iq.vec_inst_queue_reads               1934                       # Number of vector instruction queue reads
system.cpu.iq.vec_inst_queue_wakeup_accesses          818                       # Number of vector instruction queue wakeup accesses
system.cpu.iq.vec_inst_queue_writes              1417                       # Number of vector instruction queue writes
system.cpu.itb.accesses                             0                       # DTB accesses
system.cpu.itb.align_faults                         0                       # Number of TLB faults due to alignment restrictions
system.cpu.itb.domain_faults                        0                       # Number of TLB faults due to domain restrictions
system.cpu.itb.flush_entries                        0                       # Number of entries that have been flushed from TLB
system.cpu.itb.flush_tlb                            0                       # Number of times complete TLB was flushed
system.cpu.itb.flush_tlb_asid                       0                       # Number of times TLB was flushed by ASID
system.cpu.itb.flush_tlb_mva                        0                       # Number of times TLB was flushed by MVA
system.cpu.itb.flush_tlb_mva_asid                   0                       # Number of times TLB was flushed by MVA & ASID
system.cpu.itb.hits                                 0                       # DTB hits
system.cpu.itb.inst_accesses                        0                       # ITB inst accesses
system.cpu.itb.inst_hits                            0                       # ITB inst hits
system.cpu.itb.inst_misses                          0                       # ITB inst misses
system.cpu.itb.misses                               0                       # DTB misses
system.cpu.itb.perms_faults                         0                       # Number of TLB faults due to permissions restrictions
system.cpu.itb.prefetch_faults                      0                       # Number of TLB faults due to prefetch
system.cpu.itb.read_accesses                        0                       # DTB read accesses
system.cpu.itb.read_hits                            0                       # DTB read hits
system.cpu.itb.read_misses                          0                       # DTB read misses
system.cpu.itb.stage2_mmu.stage2_tlb.accesses            0                       # DTB accesses
system.cpu.itb.stage2_mmu.stage2_tlb.align_faults            0                       # Number of TLB faults due to alignment restrictions
system.cpu.itb.stage2_mmu.stage2_tlb.domain_faults            0                       # Number of TLB faults due to domain restrictions
system.cpu.itb.stage2_mmu.stage2_tlb.flush_entries            0                       # Number of entries that have been flushed from TLB
system.cpu.itb.stage2_mmu.stage2_tlb.flush_tlb            0                       # Number of times complete TLB was flushed
system.cpu.itb.stage2_mmu.stage2_tlb.flush_tlb_asid            0                       # Number of times TLB was flushed by ASID
system.cpu.itb.stage2_mmu.stage2_tlb.flush_tlb_mva            0                       # Number of times TLB was flushed by MVA
system.cpu.itb.stage2_mmu.stage2_tlb.flush_tlb_mva_asid            0                       # Number of times TLB was flushed by MVA & ASID
system.cpu.itb.stage2_mmu.stage2_tlb.hits            0                       # DTB hits
system.cpu.itb.stage2_mmu.stage2_tlb.inst_accesses            0                       # ITB inst accesses
system.cpu.itb.stage2_mmu.stage2_tlb.inst_hits            0                       # ITB inst hits
system.cpu.itb.stage2_mmu.stage2_tlb.inst_misses            0                       # ITB inst misses
system.cpu.itb.stage2_mmu.stage2_tlb.misses            0                       # DTB misses
system.cpu.itb.stage2_mmu.stage2_tlb.perms_faults            0                       # Number of TLB faults due to permissions restrictions
system.cpu.itb.stage2_mmu.stage2_tlb.prefetch_faults            0                       # Number of TLB faults due to prefetch
system.cpu.itb.stage2_mmu.stage2_tlb.read_accesses            0                       # DTB read accesses
system.cpu.itb.stage2_mmu.stage2_tlb.read_hits            0                       # DTB read hits
system.cpu.itb.stage2_mmu.stage2_tlb.read_misses            0                       # DTB read misses
system.cpu.itb.stage2_mmu.stage2_tlb.walker.walkRequestOrigin_Requested::Data            0                       # Table walker requests started/completed, data/inst
system.cpu.itb.stage2_mmu.stage2_tlb.walker.walkRequestOrigin_Requested::Inst            0                       # Table walker requests started/completed, data/inst
system.cpu.itb.stage2_mmu.stage2_tlb.walker.walkRequestOrigin_Requested::total            0                       # Table walker requests started/completed, data/inst
system.cpu.itb.stage2_mmu.stage2_tlb.walker.walkRequestOrigin_Completed::Data            0                       # Table walker requests started/completed, data/inst
system.cpu.itb.stage2_mmu.stage2_tlb.walker.walkRequestOrigin_Completed::Inst            0                       # Table walker requests started/completed, data/inst
system.cpu.itb.stage2_mmu.stage2_tlb.walker.walkRequestOrigin_Completed::total            0                       # Table walker requests started/completed, data/inst
system.cpu.itb.stage2_mmu.stage2_tlb.walker.walkRequestOrigin::total            0                       # Table walker requests started/completed, data/inst
system.cpu.itb.stage2_mmu.stage2_tlb.walker.walks            0                       # Table walker walks requested
system.cpu.itb.stage2_mmu.stage2_tlb.write_accesses            0                       # DTB write accesses
system.cpu.itb.stage2_mmu.stage2_tlb.write_hits            0                       # DTB write hits
system.cpu.itb.stage2_mmu.stage2_tlb.write_misses            0                       # DTB write misses
system.cpu.itb.walker.walkRequestOrigin_Requested::Data            0                       # Table walker requests started/completed, data/inst
system.cpu.itb.walker.walkRequestOrigin_Requested::Inst            0                       # Table walker requests started/completed, data/inst
system.cpu.itb.walker.walkRequestOrigin_Requested::total            0                       # Table walker requests started/completed, data/inst
system.cpu.itb.walker.walkRequestOrigin_Completed::Data            0                       # Table walker requests started/completed, data/inst
system.cpu.itb.walker.walkRequestOrigin_Completed::Inst            0                       # Table walker requests started/completed, data/inst
system.cpu.itb.walker.walkRequestOrigin_Completed::total            0                       # Table walker requests started/completed, data/inst
system.cpu.itb.walker.walkRequestOrigin::total            0                       # Table walker requests started/completed, data/inst
system.cpu.itb.walker.walks                         0                       # Table walker walks requested
system.cpu.itb.write_accesses                       0                       # DTB write accesses
system.cpu.itb.write_hits                           0                       # DTB write hits
system.cpu.itb.write_misses                         0                       # DTB write misses
system.cpu.memDep0.conflictingLoads             28380                       # Number of conflicting loads.
system.cpu.memDep0.conflictingStores            68371                       # Number of conflicting stores.
system.cpu.memDep0.insertedLoads              1217022                       # Number of loads inserted to the mem dependence unit.
system.cpu.memDep0.insertedStores             1027437                       # Number of stores inserted to the mem dependence unit.
system.cpu.misc_regfile_reads                 8226923                       # number of misc regfile reads
system.cpu.misc_regfile_writes                   2121                       # number of misc regfile writes
system.cpu.numCycles                          6314983                       # number of cpu cycles simulated
system.cpu.numWorkItemsCompleted                    0                       # number of work items this cpu completed
system.cpu.numWorkItemsStarted                      0                       # number of work items this cpu started
system.cpu.rename.BlockCycles                  453875                       # Number of cycles rename is blocking
system.cpu.rename.CommittedMaps              12203023                       # Number of HB maps that are committed
system.cpu.rename.IQFullEvents                 118491                       # Number of times rename has blocked due to IQ full
system.cpu.rename.IdleCycles                  2556393                       # Number of cycles rename is idle
system.cpu.rename.LQFullEvents                   3685                       # Number of times rename has blocked due to LQ full
system.cpu.rename.ROBFullEvents                  5639                       # Number of times rename has blocked due to ROB full
system.cpu.rename.RenameLookups              18668772                       # Number of register rename lookups that rename has made
system.cpu.rename.RenamedInsts               11951298                       # Number of instructions processed by rename
system.cpu.rename.RenamedOperands            12847903                       # Number of destination operands rename has renamed
system.cpu.rename.RunCycles                   2935521                       # Number of cycles rename is running
system.cpu.rename.SQFullEvents                  14262                       # Number of times rename has blocked due to SQ full
system.cpu.rename.SquashCycles                  17977                       # Number of cycles rename is squashing
system.cpu.rename.UnblockCycles                153429                       # Number of cycles rename is unblocking
system.cpu.rename.UndoneMaps                   644859                       # Number of HB maps that are undone due to squashing
system.cpu.rename.int_rename_lookups         13528169                       # Number of integer rename lookups
system.cpu.rename.serializeStallCycles          73550                       # count of cycles rename stalled for serializing inst
system.cpu.rename.serializingInsts               2117                       # count of serializing insts renamed
system.cpu.rename.skidInsts                    215475                       # count of insts added to the skid buffer
system.cpu.rename.tempSerializingInsts            585                       # count of temporary serializing insts renamed
system.cpu.rename.vec_rename_lookups             1235                       # Number of vector rename lookups
system.cpu.rob.rob_reads                     17519804                       # The number of ROB reads
system.cpu.rob.rob_writes                    23813893                       # The number of ROB writes
system.cpu.timesIdled                            4715                       # Number of times that the entire CPU went into an idle state and unscheduled itself
system.cpu.vec_regfile_reads                      930                       # number of vector regfile reads
system.cpu.vec_regfile_writes                     264                       # number of vector regfile writes
system.cpu.workload.numSyscalls                     9                       # Number of system calls
system.membus.snoop_filter.hit_multi_requests            0                       # Number of requests hitting in the snoop filter with multiple (>1) holders of the requested data.
system.membus.snoop_filter.hit_multi_snoops            0                       # Number of snoops hitting in the snoop filter with multiple (>1) holders of the requested data.
system.membus.snoop_filter.hit_single_requests            0                       # Number of requests hitting in the snoop filter with a single holder of the requested data.
system.membus.snoop_filter.hit_single_snoops            0                       # Number of snoops hitting in the snoop filter with a single holder of the requested data.
system.membus.snoop_filter.tot_requests          8241                       # Total number of requests made to the snoop filter.
system.membus.snoop_filter.tot_snoops               0                       # Total number of snoops made to the snoop filter.
system.tol2bus.snoop_filter.hit_multi_requests            1                       # Number of requests hitting in the snoop filter with multiple (>1) holders of the requested data.
system.tol2bus.snoop_filter.hit_multi_snoops            0                       # Number of snoops hitting in the snoop filter with multiple (>1) holders of the requested data.
system.tol2bus.snoop_filter.hit_single_requests        39142                       # Number of requests hitting in the snoop filter with a single holder of the requested data.
system.tol2bus.snoop_filter.hit_single_snoops            0                       # Number of snoops hitting in the snoop filter with a single holder of the requested data.
system.tol2bus.snoop_filter.tot_requests        79372                       # Total number of requests made to the snoop filter.
system.tol2bus.snoop_filter.tot_snoops              0                       # Total number of snoops made to the snoop filter.
system.membus.trans_dist::ReadResp               5672                       # Transaction distribution
system.membus.trans_dist::ReadExReq              2415                       # Transaction distribution
system.membus.trans_dist::ReadExResp             2415                       # Transaction distribution
system.membus.trans_dist::ReadSharedReq          5672                       # Transaction distribution
system.membus.trans_dist::InvalidateReq           154                       # Transaction distribution
system.membus.pkt_count_system.l2.mem_side::system.mem_ctrls.port        16328                       # Packet count per connected master and slave (bytes)
system.membus.pkt_count::total                  16328                       # Packet count per connected master and slave (bytes)
system.membus.pkt_size_system.l2.mem_side::system.mem_ctrls.port       517568                       # Cumulative packet size per connected master and slave (bytes)
system.membus.pkt_size::total                  517568                       # Cumulative packet size per connected master and slave (bytes)
system.membus.snoops                                0                       # Total snoops (count)
system.membus.snoopTraffic                          0                       # Total snoop traffic (bytes)
system.membus.snoop_fanout::samples              8241                       # Request fanout histogram
system.membus.snoop_fanout::mean                    0                       # Request fanout histogram
system.membus.snoop_fanout::stdev                   0                       # Request fanout histogram
system.membus.snoop_fanout::underflows              0      0.00%      0.00% # Request fanout histogram
system.membus.snoop_fanout::0                    8241    100.00%    100.00% # Request fanout histogram
system.membus.snoop_fanout::1                       0      0.00%    100.00% # Request fanout histogram
system.membus.snoop_fanout::overflows               0      0.00%    100.00% # Request fanout histogram
system.membus.snoop_fanout::min_value               0                       # Request fanout histogram
system.membus.snoop_fanout::max_value               0                       # Request fanout histogram
system.membus.snoop_fanout::total                8241                       # Request fanout histogram
system.membus.reqLayer0.occupancy             9862000                       # Layer occupancy (ticks)
system.membus.reqLayer0.utilization               0.3                       # Layer utilization (%)
system.membus.respLayer1.occupancy           42677250                       # Layer occupancy (ticks)
system.membus.respLayer1.utilization              1.4                       # Layer utilization (%)
system.membus.power_state.pwrStateResidencyTicks::UNDEFINED   3157490500                       # Cumulative time (in ticks) in various power states
system.tol2bus.trans_dist::ReadResp             37624                       # Transaction distribution
system.tol2bus.trans_dist::WritebackDirty         8305                       # Transaction distribution
system.tol2bus.trans_dist::WritebackClean         7445                       # Transaction distribution
system.tol2bus.trans_dist::CleanEvict           23392                       # Transaction distribution
system.tol2bus.trans_dist::ReadExReq             2451                       # Transaction distribution
system.tol2bus.trans_dist::ReadExResp            2451                       # Transaction distribution
system.tol2bus.trans_dist::ReadCleanReq          7509                       # Transaction distribution
system.tol2bus.trans_dist::ReadSharedReq        30115                       # Transaction distribution
system.tol2bus.trans_dist::InvalidateReq          155                       # Transaction distribution
system.tol2bus.trans_dist::InvalidateResp          155                       # Transaction distribution
system.tol2bus.pkt_count_system.cpu.icache.mem_side::system.l2.cpu_side        22463                       # Packet count per connected master and slave (bytes)
system.tol2bus.pkt_count_system.cpu.dcache.mem_side::system.l2.cpu_side        97139                       # Packet count per connected master and slave (bytes)
system.tol2bus.pkt_count::total                119602                       # Packet count per connected master and slave (bytes)
system.tol2bus.pkt_size_system.cpu.icache.mem_side::system.l2.cpu_side       957056                       # Cumulative packet size per connected master and slave (bytes)
system.tol2bus.pkt_size_system.cpu.dcache.mem_side::system.l2.cpu_side      2615744                       # Cumulative packet size per connected master and slave (bytes)
system.tol2bus.pkt_size::total                3572800                       # Cumulative packet size per connected master and slave (bytes)
system.tol2bus.snoops                               0                       # Total snoops (count)
system.tol2bus.snoopTraffic                         0                       # Total snoop traffic (bytes)
system.tol2bus.snoop_fanout::samples            40230                       # Request fanout histogram
system.tol2bus.snoop_fanout::mean            0.000025                       # Request fanout histogram
system.tol2bus.snoop_fanout::stdev           0.004986                       # Request fanout histogram
system.tol2bus.snoop_fanout::underflows             0      0.00%      0.00% # Request fanout histogram
system.tol2bus.snoop_fanout::0                  40229    100.00%    100.00% # Request fanout histogram
system.tol2bus.snoop_fanout::1                      1      0.00%    100.00% # Request fanout histogram
system.tol2bus.snoop_fanout::2                      0      0.00%    100.00% # Request fanout histogram
system.tol2bus.snoop_fanout::overflows              0      0.00%    100.00% # Request fanout histogram
system.tol2bus.snoop_fanout::min_value              0                       # Request fanout histogram
system.tol2bus.snoop_fanout::max_value              1                       # Request fanout histogram
system.tol2bus.snoop_fanout::total              40230                       # Request fanout histogram
system.tol2bus.reqLayer0.occupancy           55436000                       # Layer occupancy (ticks)
system.tol2bus.reqLayer0.utilization              1.8                       # Layer utilization (%)
system.tol2bus.respLayer1.occupancy          48933985                       # Layer occupancy (ticks)
system.tol2bus.respLayer1.utilization             1.5                       # Layer utilization (%)
system.tol2bus.respLayer0.occupancy          11263500                       # Layer occupancy (ticks)
system.tol2bus.respLayer0.utilization             0.4                       # Layer utilization (%)
system.tol2bus.power_state.pwrStateResidencyTicks::UNDEFINED   3157490500                       # Cumulative time (in ticks) in various power states
system.voltage_domain.voltage                       1                       # Voltage in Volts
system.clk_domain.clock                          1000                       # Clock period in ticks
system.l2.demand_hits::.cpu.inst                 5993                       # number of demand (read+write) hits
system.l2.demand_hits::.cpu.data                25995                       # number of demand (read+write) hits
system.l2.demand_hits::total                    31988                       # number of demand (read+write) hits
system.l2.overall_hits::.cpu.inst                5993                       # number of overall hits
system.l2.overall_hits::.cpu.data               25995                       # number of overall hits
system.l2.overall_hits::total                   31988                       # number of overall hits
system.l2.demand_misses::.cpu.inst               1516                       # number of demand (read+write) misses
system.l2.demand_misses::.cpu.data               6571                       # number of demand (read+write) misses
system.l2.demand_misses::total                   8087                       # number of demand (read+write) misses
system.l2.overall_misses::.cpu.inst              1516                       # number of overall misses
system.l2.overall_misses::.cpu.data              6571                       # number of overall misses
system.l2.overall_misses::total                  8087                       # number of overall misses
system.l2.demand_miss_latency::.cpu.inst    118215000                       # number of demand (read+write) miss cycles
system.l2.demand_miss_latency::.cpu.data    496208000                       # number of demand (read+write) miss cycles
system.l2.demand_miss_latency::total        614423000                       # number of demand (read+write) miss cycles
system.l2.overall_miss_latency::.cpu.inst    118215000                       # number of overall miss cycles
system.l2.overall_miss_latency::.cpu.data    496208000                       # number of overall miss cycles
system.l2.overall_miss_latency::total       614423000                       # number of overall miss cycles
system.l2.demand_accesses::.cpu.inst             7509                       # number of demand (read+write) accesses
system.l2.demand_accesses::.cpu.data            32566                       # number of demand (read+write) accesses
system.l2.demand_accesses::total                40075                       # number of demand (read+write) accesses
system.l2.overall_accesses::.cpu.inst            7509                       # number of overall (read+write) accesses
system.l2.overall_accesses::.cpu.data           32566                       # number of overall (read+write) accesses
system.l2.overall_accesses::total               40075                       # number of overall (read+write) accesses
system.l2.demand_miss_rate::.cpu.inst        0.201891                       # miss rate for demand accesses
system.l2.demand_miss_rate::.cpu.data        0.201775                       # miss rate for demand accesses
system.l2.demand_miss_rate::total            0.201797                       # miss rate for demand accesses
system.l2.overall_miss_rate::.cpu.inst       0.201891                       # miss rate for overall accesses
system.l2.overall_miss_rate::.cpu.data       0.201775                       # miss rate for overall accesses
system.l2.overall_miss_rate::total           0.201797                       # miss rate for overall accesses
system.l2.demand_avg_miss_latency::.cpu.inst 77978.232190                       # average overall miss latency
system.l2.demand_avg_miss_latency::.cpu.data 75514.837924                       # average overall miss latency
system.l2.demand_avg_miss_latency::total 75976.629158                       # average overall miss latency
system.l2.overall_avg_miss_latency::.cpu.inst 77978.232190                       # average overall miss latency
system.l2.overall_avg_miss_latency::.cpu.data 75514.837924                       # average overall miss latency
system.l2.overall_avg_miss_latency::total 75976.629158                       # average overall miss latency
system.l2.blocked_cycles::no_mshrs                  0                       # number of cycles access was blocked
system.l2.blocked_cycles::no_targets                0                       # number of cycles access was blocked
system.l2.blocked::no_mshrs                         0                       # number of cycles access was blocked
system.l2.blocked::no_targets                       0                       # number of cycles access was blocked
system.l2.avg_blocked_cycles::no_mshrs            nan                       # average number of cycles each access was blocked
system.l2.avg_blocked_cycles::no_targets          nan                       # average number of cycles each access was blocked
system.l2.demand_mshr_misses::.cpu.inst          1516                       # number of demand (read+write) MSHR misses
system.l2.demand_mshr_misses::.cpu.data          6571                       # number of demand (read+write) MSHR misses
system.l2.demand_mshr_misses::total              8087                       # number of demand (read+write) MSHR misses
system.l2.overall_mshr_misses::.cpu.inst         1516                       # number of overall MSHR misses
system.l2.overall_mshr_misses::.cpu.data         6571                       # number of overall MSHR misses
system.l2.overall_mshr_misses::total             8087                       # number of overall MSHR misses
system.l2.demand_mshr_miss_latency::.cpu.inst    103055000                       # number of demand (read+write) MSHR miss cycles
system.l2.demand_mshr_miss_latency::.cpu.data    430498000                       # number of demand (read+write) MSHR miss cycles
system.l2.demand_mshr_miss_latency::total    533553000                       # number of demand (read+write) MSHR miss cycles
system.l2.overall_mshr_miss_latency::.cpu.inst    103055000                       # number of overall MSHR miss cycles
system.l2.overall_mshr_miss_latency::.cpu.data    430498000                       # number of overall MSHR miss cycles
system.l2.overall_mshr_miss_latency::total    533553000                       # number of overall MSHR miss cycles
system.l2.demand_mshr_miss_rate::.cpu.inst     0.201891                       # mshr miss rate for demand accesses
system.l2.demand_mshr_miss_rate::.cpu.data     0.201775                       # mshr miss rate for demand accesses
system.l2.demand_mshr_miss_rate::total       0.201797                       # mshr miss rate for demand accesses
system.l2.overall_mshr_miss_rate::.cpu.inst     0.201891                       # mshr miss rate for overall accesses
system.l2.overall_mshr_miss_rate::.cpu.data     0.201775                       # mshr miss rate for overall accesses
system.l2.overall_mshr_miss_rate::total      0.201797                       # mshr miss rate for overall accesses
system.l2.demand_avg_mshr_miss_latency::.cpu.inst 67978.232190                       # average overall mshr miss latency
system.l2.demand_avg_mshr_miss_latency::.cpu.data 65514.837924                       # average overall mshr miss latency
system.l2.demand_avg_mshr_miss_latency::total 65976.629158                       # average overall mshr miss latency
system.l2.overall_avg_mshr_miss_latency::.cpu.inst 67978.232190                       # average overall mshr miss latency
system.l2.overall_avg_mshr_miss_latency::.cpu.data 65514.837924                       # average overall mshr miss latency
system.l2.overall_avg_mshr_miss_latency::total 65976.629158                       # average overall mshr miss latency
system.l2.replacements                              0                       # number of replacements
system.l2.WritebackDirty_hits::.writebacks         8305                       # number of WritebackDirty hits
system.l2.WritebackDirty_hits::total             8305                       # number of WritebackDirty hits
system.l2.WritebackDirty_accesses::.writebacks         8305                       # number of WritebackDirty accesses(hits+misses)
system.l2.WritebackDirty_accesses::total         8305                       # number of WritebackDirty accesses(hits+misses)
system.l2.WritebackClean_hits::.writebacks         7444                       # number of WritebackClean hits
system.l2.WritebackClean_hits::total             7444                       # number of WritebackClean hits
system.l2.WritebackClean_accesses::.writebacks         7444                       # number of WritebackClean accesses(hits+misses)
system.l2.WritebackClean_accesses::total         7444                       # number of WritebackClean accesses(hits+misses)
system.l2.ReadExReq_hits::.cpu.data                36                       # number of ReadExReq hits
system.l2.ReadExReq_hits::total                    36                       # number of ReadExReq hits
system.l2.ReadExReq_misses::.cpu.data            2415                       # number of ReadExReq misses
system.l2.ReadExReq_misses::total                2415                       # number of ReadExReq misses
system.l2.ReadExReq_miss_latency::.cpu.data    185694000                       # number of ReadExReq miss cycles
system.l2.ReadExReq_miss_latency::total     185694000                       # number of ReadExReq miss cycles
system.l2.ReadExReq_accesses::.cpu.data          2451                       # number of ReadExReq accesses(hits+misses)
system.l2.ReadExReq_accesses::total              2451                       # number of ReadExReq accesses(hits+misses)
system.l2.ReadExReq_miss_rate::.cpu.data     0.985312                       # miss rate for ReadExReq accesses
system.l2.ReadExReq_miss_rate::total         0.985312                       # miss rate for ReadExReq accesses
system.l2.ReadExReq_avg_miss_latency::.cpu.data 76891.925466                       # average ReadExReq miss latency
system.l2.ReadExReq_avg_miss_latency::total 76891.925466                       # average ReadExReq miss latency
system.l2.ReadExReq_mshr_misses::.cpu.data         2415                       # number of ReadExReq MSHR misses
system.l2.ReadExReq_mshr_misses::total           2415                       # number of ReadExReq MSHR misses
system.l2.ReadExReq_mshr_miss_latency::.cpu.data    161544000                       # number of ReadExReq MSHR miss cycles
system.l2.ReadExReq_mshr_miss_latency::total    161544000                       # number of ReadExReq MSHR miss cycles
system.l2.ReadExReq_mshr_miss_rate::.cpu.data     0.985312                       # mshr miss rate for ReadExReq accesses
system.l2.ReadExReq_mshr_miss_rate::total     0.985312                       # mshr miss rate for ReadExReq accesses
system.l2.ReadExReq_avg_mshr_miss_latency::.cpu.data 66891.925466                       # average ReadExReq mshr miss latency
system.l2.ReadExReq_avg_mshr_miss_latency::total 66891.925466                       # average ReadExReq mshr miss latency
system.l2.ReadCleanReq_hits::.cpu.inst           5993                       # number of ReadCleanReq hits
system.l2.ReadCleanReq_hits::total               5993                       # number of ReadCleanReq hits
system.l2.ReadCleanReq_misses::.cpu.inst         1516                       # number of ReadCleanReq misses
system.l2.ReadCleanReq_misses::total             1516                       # number of ReadCleanReq misses
system.l2.ReadCleanReq_miss_latency::.cpu.inst    118215000                       # number of ReadCleanReq miss cycles
system.l2.ReadCleanReq_miss_latency::total    118215000                       # number of ReadCleanReq miss cycles
system.l2.ReadCleanReq_accesses::.cpu.inst         7509                       # number of ReadCleanReq accesses(hits+misses)
system.l2.ReadCleanReq_accesses::total           7509                       # number of ReadCleanReq accesses(hits+misses)
system.l2.ReadCleanReq_miss_rate::.cpu.inst     0.201891                       # miss rate for ReadCleanReq accesses
system.l2.ReadCleanReq_miss_rate::total      0.201891                       # miss rate for ReadCleanReq accesses
system.l2.ReadCleanReq_avg_miss_latency::.cpu.inst 77978.232190                       # average ReadCleanReq miss latency
system.l2.ReadCleanReq_avg_miss_latency::total 77978.232190                       # average ReadCleanReq miss latency
system.l2.ReadCleanReq_mshr_misses::.cpu.inst         1516                       # number of ReadCleanReq MSHR misses
system.l2.ReadCleanReq_mshr_misses::total         1516                       # number of ReadCleanReq MSHR misses
system.l2.ReadCleanReq_mshr_miss_latency::.cpu.inst    103055000                       # number of ReadCleanReq MSHR miss cycles
system.l2.ReadCleanReq_mshr_miss_latency::total    103055000                       # number of ReadCleanReq MSHR miss cycles
[...]
system.cpu.dcache.demand_accesses::total      2139545                       # number of demand (read+write) accesses
system.cpu.dcache.overall_accesses::.cpu.data      2139557                       # number of overall (read+write) accesses
system.cpu.dcache.overall_accesses::total      2139557                       # number of overall (read+write) accesses
system.cpu.dcache.demand_miss_rate::.cpu.data     0.029846                       # miss rate for demand accesses
system.cpu.dcache.demand_miss_rate::total     0.029846                       # miss rate for demand accesses
system.cpu.dcache.overall_miss_rate::.cpu.data     0.029846                       # miss rate for overall accesses
system.cpu.dcache.overall_miss_rate::total     0.029846                       # miss rate for overall accesses
system.cpu.dcache.demand_avg_miss_latency::.cpu.data 32540.998497                       # average overall miss latency
system.cpu.dcache.demand_avg_miss_latency::total 32540.998497                       # average overall miss latency
system.cpu.dcache.overall_avg_miss_latency::.cpu.data 32539.979329                       # average overall miss latency
system.cpu.dcache.overall_avg_miss_latency::total 32539.979329                       # average overall miss latency
system.cpu.dcache.blocked_cycles::no_mshrs            0                       # number of cycles access was blocked
system.cpu.dcache.blocked_cycles::no_targets            0                       # number of cycles access was blocked
system.cpu.dcache.blocked::no_mshrs                 0                       # number of cycles access was blocked
system.cpu.dcache.blocked::no_targets               0                       # number of cycles access was blocked
system.cpu.dcache.avg_blocked_cycles::no_mshrs          nan                       # average number of cycles each access was blocked
system.cpu.dcache.avg_blocked_cycles::no_targets          nan                       # average number of cycles each access was blocked
system.cpu.dcache.writebacks::.writebacks         8305                       # number of writebacks
system.cpu.dcache.writebacks::total              8305                       # number of writebacks
system.cpu.dcache.demand_mshr_hits::.cpu.data        31140                       # number of demand (read+write) MSHR hits
system.cpu.dcache.demand_mshr_hits::total        31140                       # number of demand (read+write) MSHR hits
system.cpu.dcache.overall_mshr_hits::.cpu.data        31140                       # number of overall MSHR hits
system.cpu.dcache.overall_mshr_hits::total        31140                       # number of overall MSHR hits
system.cpu.dcache.demand_mshr_misses::.cpu.data        32716                       # number of demand (read+write) MSHR misses
system.cpu.dcache.demand_mshr_misses::total        32716                       # number of demand (read+write) MSHR misses
system.cpu.dcache.overall_mshr_misses::.cpu.data        32718                       # number of overall MSHR misses
system.cpu.dcache.overall_mshr_misses::total        32718                       # number of overall MSHR misses
system.cpu.dcache.demand_mshr_miss_latency::.cpu.data    822799000                       # number of demand (read+write) MSHR miss cycles
system.cpu.dcache.demand_mshr_miss_latency::total    822799000                       # number of demand (read+write) MSHR miss cycles
system.cpu.dcache.overall_mshr_miss_latency::.cpu.data    822983500                       # number of overall MSHR miss cycles
system.cpu.dcache.overall_mshr_miss_latency::total    822983500                       # number of overall MSHR miss cycles
system.cpu.dcache.demand_mshr_miss_rate::.cpu.data     0.015291                       # mshr miss rate for demand accesses
system.cpu.dcache.demand_mshr_miss_rate::total     0.015291                       # mshr miss rate for demand accesses
system.cpu.dcache.overall_mshr_miss_rate::.cpu.data     0.015292                       # mshr miss rate for overall accesses
system.cpu.dcache.overall_mshr_miss_rate::total     0.015292                       # mshr miss rate for overall accesses
system.cpu.dcache.demand_avg_mshr_miss_latency::.cpu.data 25149.743245                       # average overall mshr miss latency
system.cpu.dcache.demand_avg_mshr_miss_latency::total 25149.743245                       # average overall mshr miss latency
system.cpu.dcache.overall_avg_mshr_miss_latency::.cpu.data 25153.844978                       # average overall mshr miss latency
system.cpu.dcache.overall_avg_mshr_miss_latency::total 25153.844978                       # average overall mshr miss latency
system.cpu.dcache.replacements                  31697                       # number of replacements
system.cpu.dcache.ReadReq_hits::.cpu.data      1142848                       # number of ReadReq hits
system.cpu.dcache.ReadReq_hits::total         1142848                       # number of ReadReq hits
system.cpu.dcache.ReadReq_misses::.cpu.data        54624                       # number of ReadReq misses
system.cpu.dcache.ReadReq_misses::total         54624                       # number of ReadReq misses
system.cpu.dcache.ReadReq_miss_latency::.cpu.data   1578621000                       # number of ReadReq miss cycles
system.cpu.dcache.ReadReq_miss_latency::total   1578621000                       # number of ReadReq miss cycles
system.cpu.dcache.ReadReq_accesses::.cpu.data      1197472                       # number of ReadReq accesses(hits+misses)
system.cpu.dcache.ReadReq_accesses::total      1197472                       # number of ReadReq accesses(hits+misses)
system.cpu.dcache.ReadReq_miss_rate::.cpu.data     0.045616                       # miss rate for ReadReq accesses
system.cpu.dcache.ReadReq_miss_rate::total     0.045616                       # miss rate for ReadReq accesses
system.cpu.dcache.ReadReq_avg_miss_latency::.cpu.data 28899.769332                       # average ReadReq miss latency
system.cpu.dcache.ReadReq_avg_miss_latency::total 28899.769332                       # average ReadReq miss latency
system.cpu.dcache.ReadReq_mshr_hits::.cpu.data        24514                       # number of ReadReq MSHR hits
system.cpu.dcache.ReadReq_mshr_hits::total        24514                       # number of ReadReq MSHR hits
system.cpu.dcache.ReadReq_mshr_misses::.cpu.data        30110                       # number of ReadReq MSHR misses
system.cpu.dcache.ReadReq_mshr_misses::total        30110                       # number of ReadReq MSHR misses
system.cpu.dcache.ReadReq_mshr_miss_latency::.cpu.data    627984500                       # number of ReadReq MSHR miss cycles
system.cpu.dcache.ReadReq_mshr_miss_latency::total    627984500                       # number of ReadReq MSHR miss cycles
system.cpu.dcache.ReadReq_mshr_miss_rate::.cpu.data     0.025145                       # mshr miss rate for ReadReq accesses
system.cpu.dcache.ReadReq_mshr_miss_rate::total     0.025145                       # mshr miss rate for ReadReq accesses
system.cpu.dcache.ReadReq_avg_mshr_miss_latency::.cpu.data 20856.343408                       # average ReadReq mshr miss latency
system.cpu.dcache.ReadReq_avg_mshr_miss_latency::total 20856.343408                       # average ReadReq mshr miss latency
system.cpu.dcache.WriteReq_hits::.cpu.data       932829                       # number of WriteReq hits
system.cpu.dcache.WriteReq_hits::total         932829                       # number of WriteReq hits
system.cpu.dcache.WriteReq_misses::.cpu.data         9093                       # number of WriteReq misses
system.cpu.dcache.WriteReq_misses::total         9093                       # number of WriteReq misses
system.cpu.dcache.WriteReq_miss_latency::.cpu.data    494638000                       # number of WriteReq miss cycles
system.cpu.dcache.WriteReq_miss_latency::total    494638000                       # number of WriteReq miss cycles
system.cpu.dcache.WriteReq_accesses::.cpu.data       941922                       # number of WriteReq accesses(hits+misses)
system.cpu.dcache.WriteReq_accesses::total       941922                       # number of WriteReq accesses(hits+misses)
system.cpu.dcache.WriteReq_miss_rate::.cpu.data     0.009654                       # miss rate for WriteReq accesses
system.cpu.dcache.WriteReq_miss_rate::total     0.009654                       # miss rate for WriteReq accesses
system.cpu.dcache.WriteReq_avg_miss_latency::.cpu.data 54397.668536                       # average WriteReq miss latency
system.cpu.dcache.WriteReq_avg_miss_latency::total 54397.668536                       # average WriteReq miss latency
system.cpu.dcache.WriteReq_mshr_hits::.cpu.data         6626                       # number of WriteReq MSHR hits
system.cpu.dcache.WriteReq_mshr_hits::total         6626                       # number of WriteReq MSHR hits
system.cpu.dcache.WriteReq_mshr_misses::.cpu.data         2467                       # number of WriteReq MSHR misses
system.cpu.dcache.WriteReq_mshr_misses::total         2467                       # number of WriteReq MSHR misses
system.cpu.dcache.WriteReq_mshr_miss_latency::.cpu.data    190274500                       # number of WriteReq MSHR miss cycles
system.cpu.dcache.WriteReq_mshr_miss_latency::total    190274500                       # number of WriteReq MSHR miss cycles
system.cpu.dcache.WriteReq_mshr_miss_rate::.cpu.data     0.002619                       # mshr miss rate for WriteReq accesses
system.cpu.dcache.WriteReq_mshr_miss_rate::total     0.002619                       # mshr miss rate for WriteReq accesses
system.cpu.dcache.WriteReq_avg_mshr_miss_latency::.cpu.data 77127.888123                       # average WriteReq mshr miss latency
system.cpu.dcache.WriteReq_avg_mshr_miss_latency::total 77127.888123                       # average WriteReq mshr miss latency
system.cpu.dcache.SoftPFReq_hits::.cpu.data           10                       # number of SoftPFReq hits
system.cpu.dcache.SoftPFReq_hits::total            10                       # number of SoftPFReq hits
system.cpu.dcache.SoftPFReq_misses::.cpu.data            2                       # number of SoftPFReq misses
system.cpu.dcache.SoftPFReq_misses::total            2                       # number of SoftPFReq misses
system.cpu.dcache.SoftPFReq_accesses::.cpu.data           12                       # number of SoftPFReq accesses(hits+misses)
system.cpu.dcache.SoftPFReq_accesses::total           12                       # number of SoftPFReq accesses(hits+misses)
system.cpu.dcache.SoftPFReq_miss_rate::.cpu.data     0.166667                       # miss rate for SoftPFReq accesses
system.cpu.dcache.SoftPFReq_miss_rate::total     0.166667                       # miss rate for SoftPFReq accesses
system.cpu.dcache.SoftPFReq_mshr_misses::.cpu.data            2                       # number of SoftPFReq MSHR misses
system.cpu.dcache.SoftPFReq_mshr_misses::total            2                       # number of SoftPFReq MSHR misses
system.cpu.dcache.SoftPFReq_mshr_miss_latency::.cpu.data       184500                       # number of SoftPFReq MSHR miss cycles
system.cpu.dcache.SoftPFReq_mshr_miss_latency::total       184500                       # number of SoftPFReq MSHR miss cycles
system.cpu.dcache.SoftPFReq_mshr_miss_rate::.cpu.data     0.166667                       # mshr miss rate for SoftPFReq accesses
system.cpu.dcache.SoftPFReq_mshr_miss_rate::total     0.166667                       # mshr miss rate for SoftPFReq accesses
system.cpu.dcache.SoftPFReq_avg_mshr_miss_latency::.cpu.data        92250                       # average SoftPFReq mshr miss latency
system.cpu.dcache.SoftPFReq_avg_mshr_miss_latency::total        92250                       # average SoftPFReq mshr miss latency
system.cpu.dcache.WriteLineReq_hits::.cpu.data           12                       # number of WriteLineReq hits
system.cpu.dcache.WriteLineReq_hits::total           12                       # number of WriteLineReq hits
system.cpu.dcache.WriteLineReq_misses::.cpu.data          139                       # number of WriteLineReq misses
system.cpu.dcache.WriteLineReq_misses::total          139                       # number of WriteLineReq misses
system.cpu.dcache.WriteLineReq_miss_latency::.cpu.data      4679000                       # number of WriteLineReq miss cycles
system.cpu.dcache.WriteLineReq_miss_latency::total      4679000                       # number of WriteLineReq miss cycles
system.cpu.dcache.WriteLineReq_accesses::.cpu.data          151                       # number of WriteLineReq accesses(hits+misses)
system.cpu.dcache.WriteLineReq_accesses::total          151                       # number of WriteLineReq accesses(hits+misses)
system.cpu.dcache.WriteLineReq_miss_rate::.cpu.data     0.920530                       # miss rate for WriteLineReq accesses
system.cpu.dcache.WriteLineReq_miss_rate::total     0.920530                       # miss rate for WriteLineReq accesses
system.cpu.dcache.WriteLineReq_avg_miss_latency::.cpu.data 33661.870504                       # average WriteLineReq miss latency
system.cpu.dcache.WriteLineReq_avg_miss_latency::total 33661.870504                       # average WriteLineReq miss latency
system.cpu.dcache.WriteLineReq_mshr_misses::.cpu.data          139                       # number of WriteLineReq MSHR misses
system.cpu.dcache.WriteLineReq_mshr_misses::total          139                       # number of WriteLineReq MSHR misses
system.cpu.dcache.WriteLineReq_mshr_miss_latency::.cpu.data      4540000                       # number of WriteLineReq MSHR miss cycles
system.cpu.dcache.WriteLineReq_mshr_miss_latency::total      4540000                       # number of WriteLineReq MSHR miss cycles
system.cpu.dcache.WriteLineReq_mshr_miss_rate::.cpu.data     0.920530                       # mshr miss rate for WriteLineReq accesses
system.cpu.dcache.WriteLineReq_mshr_miss_rate::total     0.920530                       # mshr miss rate for WriteLineReq accesses
system.cpu.dcache.WriteLineReq_avg_mshr_miss_latency::.cpu.data 32661.870504                       # average WriteLineReq mshr miss latency
system.cpu.dcache.WriteLineReq_avg_mshr_miss_latency::total 32661.870504                       # average WriteLineReq mshr miss latency
system.cpu.dcache.LoadLockedReq_hits::.cpu.data          554                       # number of LoadLockedReq hits
system.cpu.dcache.LoadLockedReq_hits::total          554                       # number of LoadLockedReq hits
system.cpu.dcache.LoadLockedReq_misses::.cpu.data            4                       # number of LoadLockedReq misses
system.cpu.dcache.LoadLockedReq_misses::total            4                       # number of LoadLockedReq misses
system.cpu.dcache.LoadLockedReq_miss_latency::.cpu.data       287000                       # number of LoadLockedReq miss cycles
system.cpu.dcache.LoadLockedReq_miss_latency::total       287000                       # number of LoadLockedReq miss cycles
system.cpu.dcache.LoadLockedReq_accesses::.cpu.data          558                       # number of LoadLockedReq accesses(hits+misses)
system.cpu.dcache.LoadLockedReq_accesses::total          558                       # number of LoadLockedReq accesses(hits+misses)
system.cpu.dcache.LoadLockedReq_miss_rate::.cpu.data     0.007168                       # miss rate for LoadLockedReq accesses
system.cpu.dcache.LoadLockedReq_miss_rate::total     0.007168                       # miss rate for LoadLockedReq accesses
system.cpu.dcache.LoadLockedReq_avg_miss_latency::.cpu.data        71750                       # average LoadLockedReq miss latency
system.cpu.dcache.LoadLockedReq_avg_miss_latency::total        71750                       # average LoadLockedReq miss latency
system.cpu.dcache.LoadLockedReq_mshr_hits::.cpu.data            1                       # number of LoadLockedReq MSHR hits
system.cpu.dcache.LoadLockedReq_mshr_hits::total            1                       # number of LoadLockedReq MSHR hits
system.cpu.dcache.LoadLockedReq_mshr_misses::.cpu.data            3                       # number of LoadLockedReq MSHR misses
system.cpu.dcache.LoadLockedReq_mshr_misses::total            3                       # number of LoadLockedReq MSHR misses
system.cpu.dcache.LoadLockedReq_mshr_miss_latency::.cpu.data       196500                       # number of LoadLockedReq MSHR miss cycles
system.cpu.dcache.LoadLockedReq_mshr_miss_latency::total       196500                       # number of LoadLockedReq MSHR miss cycles
system.cpu.dcache.LoadLockedReq_mshr_miss_rate::.cpu.data     0.005376                       # mshr miss rate for LoadLockedReq accesses
system.cpu.dcache.LoadLockedReq_mshr_miss_rate::total     0.005376                       # mshr miss rate for LoadLockedReq accesses
system.cpu.dcache.LoadLockedReq_avg_mshr_miss_latency::.cpu.data        65500                       # average LoadLockedReq mshr miss latency
system.cpu.dcache.LoadLockedReq_avg_mshr_miss_latency::total        65500                       # average LoadLockedReq mshr miss latency
system.cpu.dcache.StoreCondReq_hits::.cpu.data          530                       # number of StoreCondReq hits
system.cpu.dcache.StoreCondReq_hits::total          530                       # number of StoreCondReq hits
system.cpu.dcache.StoreCondReq_accesses::.cpu.data          530                       # number of StoreCondReq accesses(hits+misses)
system.cpu.dcache.StoreCondReq_accesses::total          530                       # number of StoreCondReq accesses(hits+misses)
system.cpu.dcache.power_state.pwrStateResidencyTicks::UNDEFINED   3157490500                       # Cumulative time (in ticks) in various power states
system.cpu.dcache.tags.tagsinuse           983.861408                       # Cycle average of tags in use
system.cpu.dcache.tags.total_refs             2109504                       # Total number of references to valid blocks.
system.cpu.dcache.tags.sampled_refs             32721                       # Sample count of references to valid blocks.
system.cpu.dcache.tags.avg_refs             64.469423                       # Average number of references to valid blocks.
system.cpu.dcache.tags.warmup_cycle            176500                       # Cycle when the warmup percentage was hit.
system.cpu.dcache.tags.occ_blocks::.cpu.data   983.861408                       # Average occupied blocks per requestor
system.cpu.dcache.tags.occ_percent::.cpu.data     0.960802                       # Average percentage of cache occupancy
system.cpu.dcache.tags.occ_percent::total     0.960802                       # Average percentage of cache occupancy
system.cpu.dcache.tags.occ_task_id_blocks::1024         1024                       # Occupied blocks per task id
system.cpu.dcache.tags.age_task_id_blocks_1024::0           29                       # Occupied blocks per task id
system.cpu.dcache.tags.age_task_id_blocks_1024::1          204                       # Occupied blocks per task id
system.cpu.dcache.tags.age_task_id_blocks_1024::2          778                       # Occupied blocks per task id
system.cpu.dcache.tags.age_task_id_blocks_1024::3           13                       # Occupied blocks per task id
system.cpu.dcache.tags.occ_task_id_percent::1024            1                       # Percentage of cache occupancy per task id
system.cpu.dcache.tags.tag_accesses           4314011                       # Number of tag accesses
system.cpu.dcache.tags.data_accesses          4314011                       # Number of data accesses
system.cpu.dcache.tags.power_state.pwrStateResidencyTicks::UNDEFINED   3157490500                       # Cumulative time (in ticks) in various power states
system.cpu.power_state.pwrStateResidencyTicks::ON   3157490500                       # Cumulative time (in ticks) in various power states

---------- End Simulation Statistics   ----------
