
---------- Begin Simulation Statistics ----------
final_tick                                18058035500                       # Number of ticks from beginning of simulation (restored from checkpoints and never reset)
host_inst_rate                                 108820                       # Simulator instruction rate (inst/s)
host_mem_usage                                 898232                       # Number of bytes of host memory used
host_op_rate                                   111233                       # Simulator op (including micro ops) rate (op/s)
host_seconds                                    91.90                       # Real time elapsed on the host
host_tick_rate                              196506864                       # Simulator tick rate (ticks/s)
sim_freq                                 1000000000000                       # Frequency of simulated ticks
sim_insts                                    10000000                       # Number of instructions simulated
sim_ops                                      10221810                       # Number of ops (including micro ops) simulated
sim_seconds                                  0.018058                       # Number of seconds simulated
sim_ticks                                 18058035500                       # Number of ticks simulated
system.cpu.branchPred.BTBCorrect                    0                       # Number of correct BTB predictions (this stat may not work properly.
system.cpu.branchPred.BTBHitPct             99.738328                       # BTB Hit Percentage
system.cpu.branchPred.BTBHits                  839692                       # Number of BTB hits
system.cpu.branchPred.BTBLookups               841895                       # Number of BTB lookups
system.cpu.branchPred.RASInCorrect                  4                       # Number of incorrect RAS predictions.
system.cpu.branchPred.condIncorrect              2743                       # Number of conditional branches incorrect
system.cpu.branchPred.condPredicted           1049730                       # Number of conditional branches predicted
system.cpu.branchPred.indirectHits                623                       # Number of indirect target hits.
system.cpu.branchPred.indirectLookups            1665                       # Number of indirect predictor lookups.
system.cpu.branchPred.indirectMisses             1042                       # Number of indirect misses.
system.cpu.branchPred.lookups                 1058403                       # Number of BP lookups
system.cpu.branchPred.usedRAS                    2925                       # Number of times the RAS was used to get a target.
system.cpu.branchPredindirectMispredicted          212                       # Number of mispredicted indirect branches.
system.cpu.cc_regfile_reads                   2957092                       # number of cc regfile reads
system.cpu.cc_regfile_writes                  2956815                       # number of cc regfile writes
system.cpu.commit.amos                              0                       # Number of atomic instructions committed
system.cpu.commit.branchMispredicts              2217                       # The number of times a branch was mispredicted
system.cpu.commit.branches                     934981                       # Number of branches committed
system.cpu.commit.bw_lim_events                433070                       # number cycles where commit BW limit reached
system.cpu.commit.commitNonSpecStalls             162                       # The number of times commit has been forced to stall to communicate backwards
system.cpu.commit.commitSquashedInsts          624736                       # The number of squashed insts skipped by commit
system.cpu.commit.committedInsts             10000217                       # Number of instructions committed
system.cpu.commit.committedOps               10222027                       # Number of ops (including micro ops) committed
system.cpu.commit.committed_per_cycle::samples     35958807                       # Number of insts commited each cycle
system.cpu.commit.committed_per_cycle::mean     0.284270                       # Number of insts commited each cycle
system.cpu.commit.committed_per_cycle::stdev     1.194445                       # Number of insts commited each cycle
system.cpu.commit.committed_per_cycle::underflows            0      0.00%      0.00% # Number of insts commited each cycle
system.cpu.commit.committed_per_cycle::0     32979621     91.72%     91.72% # Number of insts commited each cycle
system.cpu.commit.committed_per_cycle::1      1073410      2.99%     94.70% # Number of insts commited each cycle
system.cpu.commit.committed_per_cycle::2       322462      0.90%     95.60% # Number of insts commited each cycle
system.cpu.commit.committed_per_cycle::3       393984      1.10%     96.69% # Number of insts commited each cycle
system.cpu.commit.committed_per_cycle::4       293517      0.82%     97.51% # Number of insts commited each cycle
system.cpu.commit.committed_per_cycle::5       220557      0.61%     98.12% # Number of insts commited each cycle
system.cpu.commit.committed_per_cycle::6       114974      0.32%     98.44% # Number of insts commited each cycle
system.cpu.commit.committed_per_cycle::7       127212      0.35%     98.80% # Number of insts commited each cycle
system.cpu.commit.committed_per_cycle::8       433070      1.20%    100.00% # Number of insts commited each cycle
system.cpu.commit.committed_per_cycle::overflows            0      0.00%    100.00% # Number of insts commited each cycle
system.cpu.commit.committed_per_cycle::min_value            0                       # Number of insts commited each cycle
system.cpu.commit.committed_per_cycle::max_value            8                       # Number of insts commited each cycle
system.cpu.commit.committed_per_cycle::total     35958807                       # Number of insts commited each cycle
system.cpu.commit.fp_insts                          0                       # Number of committed floating point instructions.
system.cpu.commit.function_calls                 1944                       # Number of function calls committed.
system.cpu.commit.int_insts                   9265875                       # Number of committed integer instructions.
system.cpu.commit.loads                         16474                       # Number of loads committed
system.cpu.commit.membars                         100                       # Number of memory barriers committed
system.cpu.commit.op_class_0::No_OpClass            4      0.00%      0.00% # Class of committed instruction
system.cpu.commit.op_class_0::IntAlu          3677170     35.97%     35.97% # Class of committed instruction
system.cpu.commit.op_class_0::IntMult             174      0.00%     35.97% # Class of committed instruction
system.cpu.commit.op_class_0::IntDiv               22      0.00%     35.97% # Class of committed instruction
system.cpu.commit.op_class_0::FloatAdd              4      0.00%     35.97% # Class of committed instruction
system.cpu.commit.op_class_0::FloatCmp              0      0.00%     35.97% # Class of committed instruction
system.cpu.commit.op_class_0::FloatCvt          30072      0.29%     36.27% # Class of committed instruction
system.cpu.commit.op_class_0::FloatMult         30069      0.29%     36.56% # Class of committed instruction
system.cpu.commit.op_class_0::FloatMultAcc            0      0.00%     36.56% # Class of committed instruction
system.cpu.commit.op_class_0::FloatDiv              3      0.00%     36.56% # Class of committed instruction
system.cpu.commit.op_class_0::FloatMisc            15      0.00%     36.56% # Class of committed instruction
system.cpu.commit.op_class_0::FloatSqrt             0      0.00%     36.56% # Class of committed instruction
system.cpu.commit.op_class_0::SimdAdd              19      0.00%     36.56% # Class of committed instruction
system.cpu.commit.op_class_0::SimdAddAcc            0      0.00%     36.56% # Class of committed instruction
system.cpu.commit.op_class_0::SimdAlu              12      0.00%     36.56% # Class of committed instruction
system.cpu.commit.op_class_0::SimdCmp              16      0.00%     36.56% # Class of committed instruction
system.cpu.commit.op_class_0::SimdCvt               0      0.00%     36.56% # Class of committed instruction
system.cpu.commit.op_class_0::SimdMisc             52      0.00%     36.56% # Class of committed instruction
system.cpu.commit.op_class_0::SimdMult              0      0.00%     36.56% # Class of committed instruction
system.cpu.commit.op_class_0::SimdMultAcc            0      0.00%     36.56% # Class of committed instruction
system.cpu.commit.op_class_0::SimdShift             0      0.00%     36.56% # Class of committed instruction
system.cpu.commit.op_class_0::SimdShiftAcc            0      0.00%     36.56% # Class of committed instruction
system.cpu.commit.op_class_0::SimdDiv               0      0.00%     36.56% # Class of committed instruction
system.cpu.commit.op_class_0::SimdSqrt              0      0.00%     36.56% # Class of committed instruction
system.cpu.commit.op_class_0::SimdFloatAdd            0      0.00%     36.56% # Class of committed instruction
system.cpu.commit.op_class_0::SimdFloatAlu            0      0.00%     36.56% # Class of committed instruction
system.cpu.commit.op_class_0::SimdFloatCmp            0      0.00%     36.56% # Class of committed instruction
system.cpu.commit.op_class_0::SimdFloatCvt            0      0.00%     36.56% # Class of committed instruction
system.cpu.commit.op_class_0::SimdFloatDiv            0      0.00%     36.56% # Class of committed instruction
system.cpu.commit.op_class_0::SimdFloatMisc            0      0.00%     36.56% # Class of committed instruction
system.cpu.commit.op_class_0::SimdFloatMult            0      0.00%     36.56% # Class of committed instruction
system.cpu.commit.op_class_0::SimdFloatMultAcc            0      0.00%     36.56% # Class of committed instruction
system.cpu.commit.op_class_0::SimdFloatSqrt            0      0.00%     36.56% # Class of committed instruction
system.cpu.commit.op_class_0::SimdReduceAdd            0      0.00%     36.56% # Class of committed instruction
system.cpu.commit.op_class_0::SimdReduceAlu            0      0.00%     36.56% # Class of committed instruction
system.cpu.commit.op_class_0::SimdReduceCmp            0      0.00%     36.56% # Class of committed instruction
system.cpu.commit.op_class_0::SimdFloatReduceAdd            0      0.00%     36.56% # Class of committed instruction
system.cpu.commit.op_class_0::SimdFloatReduceCmp            0      0.00%     36.56% # Class of committed instruction
system.cpu.commit.op_class_0::SimdAes               0      0.00%     36.56% # Class of committed instruction
system.cpu.commit.op_class_0::SimdAesMix            0      0.00%     36.56% # Class of committed instruction
system.cpu.commit.op_class_0::SimdSha1Hash            0      0.00%     36.56% # Class of committed instruction
system.cpu.commit.op_class_0::SimdSha1Hash2            0      0.00%     36.56% # Class of committed instruction
system.cpu.commit.op_class_0::SimdSha256Hash            0      0.00%     36.56% # Class of committed instruction
system.cpu.commit.op_class_0::SimdSha256Hash2            0      0.00%     36.56% # Class of committed instruction
system.cpu.commit.op_class_0::SimdShaSigma2            0      0.00%     36.56% # Class of committed instruction
system.cpu.commit.op_class_0::SimdShaSigma3            0      0.00%     36.56% # Class of committed instruction
system.cpu.commit.op_class_0::SimdPredAlu            0      0.00%     36.56% # Class of committed instruction
system.cpu.commit.op_class_0::MemRead           16474      0.16%     36.73% # Class of committed instruction
system.cpu.commit.op_class_0::MemWrite        6467921     63.27%    100.00% # Class of committed instruction
system.cpu.commit.op_class_0::FloatMemRead            0      0.00%    100.00% # Class of committed instruction
system.cpu.commit.op_class_0::FloatMemWrite            0      0.00%    100.00% # Class of committed instruction
system.cpu.commit.op_class_0::IprAccess             0      0.00%    100.00% # Class of committed instruction
system.cpu.commit.op_class_0::InstPrefetch            0      0.00%    100.00% # Class of committed instruction
system.cpu.commit.op_class_0::total          10222027                       # Class of committed instruction
system.cpu.commit.refs                        6484395                       # Number of memory references committed
system.cpu.commit.swp_count                         0                       # Number of s/w prefetches committed
system.cpu.commit.vec_insts                    298209                       # Number of committed Vector instructions.
system.cpu.committedInsts                    10000000                       # Number of Instructions Simulated
system.cpu.committedOps                      10221810                       # Number of Ops (including micro ops) Simulated
system.cpu.cpi                               3.611607                       # CPI: Cycles Per Instruction
system.cpu.cpi_total                         3.611607                       # CPI: Total CPI of All Threads
system.cpu.decode.BlockedCycles              34025498                       # Number of cycles decode is blocked
system.cpu.decode.BranchMispred                   557                       # Number of times decode detected a branch misprediction
system.cpu.decode.BranchResolved               805841                       # Number of times decode resolved a branch
system.cpu.decode.DecodedInsts               11014644                       # Number of instructions handled by decode
system.cpu.decode.IdleCycles                   456288                       # Number of cycles decode is idle
system.cpu.decode.RunCycles                   1127583                       # Number of cycles decode is running
system.cpu.decode.SquashCycles                  14655                       # Number of cycles decode is squashing
system.cpu.decode.SquashedInsts                  1892                       # Number of squashed instructions handled by decode
system.cpu.decode.UnblockCycles                419428                       # Number of cycles decode is unblocking
system.cpu.dtb.accesses                             0                       # DTB accesses
system.cpu.dtb.align_faults                         0                       # Number of TLB faults due to alignment restrictions
system.cpu.dtb.domain_faults                        0                       # Number of TLB faults due to domain restrictions
system.cpu.dtb.flush_entries                        0                       # Number of entries that have been flushed from TLB
system.cpu.dtb.flush_tlb                            0                       # Number of times complete TLB was flushed
system.cpu.dtb.flush_tlb_asid                       0                       # Number of times TLB was flushed by ASID
system.cpu.dtb.flush_tlb_mva                        0                       # Number of times TLB was flushed by MVA
system.cpu.dtb.flush_tlb_mva_asid                   0                       # Number of times TLB was flushed by MVA & ASID
system.cpu.dtb.hits                                 0                       # DTB hits
system.cpu.dtb.inst_accesses                        0                       # ITB inst accesses
system.cpu.dtb.inst_hits                            0                       # ITB inst hits
system.cpu.dtb.inst_misses                          0                       # ITB inst misses
system.cpu.dtb.misses                               0                       # DTB misses
system.cpu.dtb.perms_faults                         0                       # Number of TLB faults due to permissions restrictions
system.cpu.dtb.prefetch_faults                      0                       # Number of TLB faults due to prefetch
system.cpu.dtb.read_accesses                        0                       # DTB read accesses
system.cpu.dtb.read_hits                            0                       # DTB read hits
system.cpu.dtb.read_misses                          0                       # DTB read misses
system.cpu.dtb.stage2_mmu.stage2_tlb.accesses            0                       # DTB accesses
system.cpu.dtb.stage2_mmu.stage2_tlb.align_faults            0                       # Number of TLB faults due to alignment restrictions
system.cpu.dtb.stage2_mmu.stage2_tlb.domain_faults            0                       # Number of TLB faults due to domain restrictions
system.cpu.dtb.stage2_mmu.stage2_tlb.flush_entries            0                       # Number of entries that have been flushed from TLB
system.cpu.dtb.stage2_mmu.stage2_tlb.flush_tlb            0                       # Number of times complete TLB was flushed
system.cpu.dtb.stage2_mmu.stage2_tlb.flush_tlb_asid            0                       # Number of times TLB was flushed by ASID
system.cpu.dtb.stage2_mmu.stage2_tlb.flush_tlb_mva            0                       # Number of times TLB was flushed by MVA
system.cpu.dtb.stage2_mmu.stage2_tlb.flush_tlb_mva_asid            0                       # Number of times TLB was flushed by MVA & ASID
system.cpu.dtb.stage2_mmu.stage2_tlb.hits            0                       # DTB hits
system.cpu.dtb.stage2_mmu.stage2_tlb.inst_accesses            0                       # ITB inst accesses
system.cpu.dtb.stage2_mmu.stage2_tlb.inst_hits            0                       # ITB inst hits
system.cpu.dtb.stage2_mmu.stage2_tlb.inst_misses            0                       # ITB inst misses
system.cpu.dtb.stage2_mmu.stage2_tlb.misses            0                       # DTB misses
system.cpu.dtb.stage2_mmu.stage2_tlb.perms_faults            0                       # Number of TLB faults due to permissions restrictions
system.cpu.dtb.stage2_mmu.stage2_tlb.prefetch_faults            0                       # Number of TLB faults due to prefetch
system.cpu.dtb.stage2_mmu.stage2_tlb.read_accesses            0                       # DTB read accesses
system.cpu.dtb.stage2_mmu.stage2_tlb.read_hits            0                       # DTB read hits
system.cpu.dtb.stage2_mmu.stage2_tlb.read_misses            0                       # DTB read misses
system.cpu.dtb.stage2_mmu.stage2_tlb.walker.walkRequestOrigin_Requested::Data            0                       # Table walker requests started/completed, data/inst
system.cpu.dtb.stage2_mmu.stage2_tlb.walker.walkRequestOrigin_Requested::Inst            0                       # Table walker requests started/completed, data/inst
system.cpu.dtb.stage2_mmu.stage2_tlb.walker.walkRequestOrigin_Requested::total            0                       # Table walker requests started/completed, data/inst
system.cpu.dtb.stage2_mmu.stage2_tlb.walker.walkRequestOrigin_Completed::Data            0                       # Table walker requests started/completed, data/inst
system.cpu.dtb.stage2_mmu.stage2_tlb.walker.walkRequestOrigin_Completed::Inst            0                       # Table walker requests started/completed, data/inst
system.cpu.dtb.stage2_mmu.stage2_tlb.walker.walkRequestOrigin_Completed::total            0                       # Table walker requests started/completed, data/inst
system.cpu.dtb.stage2_mmu.stage2_tlb.walker.walkRequestOrigin::total            0                       # Table walker requests started/completed, data/inst
system.cpu.dtb.stage2_mmu.stage2_tlb.walker.walks            0                       # Table walker walks requested
system.cpu.dtb.stage2_mmu.stage2_tlb.write_accesses            0                       # DTB write accesses
system.cpu.dtb.stage2_mmu.stage2_tlb.write_hits            0                       # DTB write hits
system.cpu.dtb.stage2_mmu.stage2_tlb.write_misses            0                       # DTB write misses
system.cpu.dtb.walker.walkRequestOrigin_Requested::Data            0                       # Table walker requests started/completed, data/inst
system.cpu.dtb.walker.walkRequestOrigin_Requested::Inst            0                       # Table walker requests started/completed, data/inst
system.cpu.dtb.walker.walkRequestOrigin_Requested::total            0                       # Table walker requests started/completed, data/inst
system.cpu.dtb.walker.walkRequestOrigin_Completed::Data            0                       # Table walker requests started/completed, data/inst
system.cpu.dtb.walker.walkRequestOrigin_Completed::Inst            0                       # Table walker requests started/completed, data/inst
system.cpu.dtb.walker.walkRequestOrigin_Completed::total            0                       # Table walker requests started/completed, data/inst
system.cpu.dtb.walker.walkRequestOrigin::total            0                       # Table walker requests started/completed, data/inst
system.cpu.dtb.walker.walks                         0                       # Table walker walks requested
system.cpu.dtb.write_accesses                       0                       # DTB write accesses
system.cpu.dtb.write_hits                           0                       # DTB write hits
system.cpu.dtb.write_misses                         0                       # DTB write misses
system.cpu.fetch.Branches                     1058403                       # Number of branches that fetch encountered
system.cpu.fetch.CacheLines                   1721212                       # Number of cache lines fetched
system.cpu.fetch.Cycles                      34259324                       # Number of cycles fetch has run and was not squashing or blocked
system.cpu.fetch.IcacheSquashes                  2447                       # Number of outstanding Icache misses that were squashed
system.cpu.fetch.Insts                       11275758                       # Number of instructions fetch has processed
system.cpu.fetch.MiscStallCycles                   16                       # Number of cycles fetch has spent waiting on interrupts, or bad addresses, or out of MSHRs
system.cpu.fetch.PendingTrapStallCycles            96                       # Number of stall cycles due to pending traps
system.cpu.fetch.SquashCycles                   30392                       # Number of cycles fetch has spent squashing
system.cpu.fetch.branchRate                  0.029306                       # Number of branch fetches per cycle
system.cpu.fetch.icacheStallCycles            1768820                       # Number of cycles fetch is stalled on an Icache miss
system.cpu.fetch.predictedBranches             843240                       # Number of branches that fetch has predicted taken
system.cpu.fetch.rate                        0.312209                       # Number of inst fetches per cycle
system.cpu.fetch.rateDist::samples           36043452                       # Number of instructions fetched each cycle (Total)
system.cpu.fetch.rateDist::mean              0.319902                       # Number of instructions fetched each cycle (Total)
system.cpu.fetch.rateDist::stdev             1.423050                       # Number of instructions fetched each cycle (Total)
system.cpu.fetch.rateDist::underflows               0      0.00%      0.00% # Number of instructions fetched each cycle (Total)
system.cpu.fetch.rateDist::0                 33957857     94.21%     94.21% # Number of instructions fetched each cycle (Total)
system.cpu.fetch.rateDist::1                    88185      0.24%     94.46% # Number of instructions fetched each cycle (Total)
system.cpu.fetch.rateDist::2                    65863      0.18%     94.64% # Number of instructions fetched each cycle (Total)
system.cpu.fetch.rateDist::3                   670476      1.86%     96.50% # Number of instructions fetched each cycle (Total)
system.cpu.fetch.rateDist::4                    25010      0.07%     96.57% # Number of instructions fetched each cycle (Total)
system.cpu.fetch.rateDist::5                   166221      0.46%     97.03% # Number of instructions fetched each cycle (Total)
system.cpu.fetch.rateDist::6                    65240      0.18%     97.21% # Number of instructions fetched each cycle (Total)
system.cpu.fetch.rateDist::7                    60365      0.17%     97.38% # Number of instructions fetched each cycle (Total)
system.cpu.fetch.rateDist::8                   944235      2.62%    100.00% # Number of instructions fetched each cycle (Total)
system.cpu.fetch.rateDist::overflows                0      0.00%    100.00% # Number of instructions fetched each cycle (Total)
system.cpu.fetch.rateDist::min_value                0                       # Number of instructions fetched each cycle (Total)
system.cpu.fetch.rateDist::max_value                8                       # Number of instructions fetched each cycle (Total)
system.cpu.fetch.rateDist::total             36043452                       # Number of instructions fetched each cycle (Total)
system.cpu.icache.prefetcher.num_hwpf_issued            0                       # number of hwpf issued
system.cpu.icache.prefetcher.pfBufferHit            0                       # number of redundant prefetches already in prefetch queue
system.cpu.icache.prefetcher.pfIdentified            0                       # number of prefetch candidates identified
system.cpu.icache.prefetcher.pfInCache              0                       # number of redundant prefetches already in cache/mshr dropped
system.cpu.icache.prefetcher.pfRemovedFull            0                       # number of prefetches dropped due to prefetch queue size
system.cpu.icache.prefetcher.pfSpanPage             0                       # number of prefetches that crossed the page
system.cpu.idleCycles                           72621                       # Total number of cycles that the CPU has spent unscheduled due to idling
system.cpu.iew.branchMispredicts                 2536                       # Number of branch mispredicts detected at execute
system.cpu.iew.exec_branches                   995667                       # Number of branches executed
system.cpu.iew.exec_nop                           281                       # number of nop insts executed
system.cpu.iew.exec_rate                     0.301278                       # Inst execution rate
system.cpu.iew.exec_refs                      6896976                       # number of memory reference insts executed
system.cpu.iew.exec_stores                    6876686                       # Number of stores executed
system.cpu.iew.exec_swp                             0                       # number of swp insts executed
system.cpu.iew.iewBlockCycles                   70406                       # Number of cycles IEW is blocking
system.cpu.iew.iewDispLoadInsts                 20941                       # Number of dispatched load instructions
system.cpu.iew.iewDispNonSpecInsts                195                       # Number of dispatched non-speculative instructions
system.cpu.iew.iewDispSquashedInsts               615                       # Number of squashed instructions skipped by dispatch
system.cpu.iew.iewDispStoreInsts              6882492                       # Number of dispatched store instructions
system.cpu.iew.iewDispatchedInsts            10895203                       # Number of instructions dispatched to IQ
system.cpu.iew.iewExecLoadInsts                 20290                       # Number of load instructions executed
system.cpu.iew.iewExecSquashedInsts              5112                       # Number of squashed instructions skipped in execute
system.cpu.iew.iewExecutedInsts              10880992                       # Number of executed instructions
system.cpu.iew.iewIQFullEvents                      7                       # Number of times the IQ has become full, causing a stall
system.cpu.iew.iewIdleCycles                        0                       # Number of cycles IEW is idle
system.cpu.iew.iewLSQFullEvents               4950378                       # Number of times the LSQ has become full, causing a stall
system.cpu.iew.iewSquashCycles                  14655                       # Number of cycles IEW is squashing
system.cpu.iew.iewUnblockCycles               4940943                       # Number of cycles IEW is unblocking
system.cpu.iew.lsq.thread0.blockedLoads             0                       # Number of blocked loads due to partial load-store forwarding
system.cpu.iew.lsq.thread0.cacheBlocked             0                       # Number of times an access to memory failed due to the cache being blocked
system.cpu.iew.lsq.thread0.forwLoads              463                       # Number of loads that had data forwarded from stores
system.cpu.iew.lsq.thread0.ignoredResponses            7                       # Number of memory responses ignored because the instruction is squashed
system.cpu.iew.lsq.thread0.invAddrLoads             0                       # Number of loads ignored due to an invalid address
system.cpu.iew.lsq.thread0.invAddrSwpfs             0                       # Number of software prefetches ignored due to an invalid address
system.cpu.iew.lsq.thread0.memOrderViolation           44                       # Number of memory ordering violations
system.cpu.iew.lsq.thread0.rescheduledLoads          560                       # Number of loads that were rescheduled
system.cpu.iew.lsq.thread0.squashedLoads         4467                       # Number of loads squashed
system.cpu.iew.lsq.thread0.squashedStores       414568                       # Number of stores squashed
system.cpu.iew.memOrderViolationEvents             44                       # Number of memory order violations
system.cpu.iew.predictedNotTakenIncorrect         1739                       # Number of branches that were predicted not taken incorrectly
system.cpu.iew.predictedTakenIncorrect            797                       # Number of branches that were predicted taken incorrectly
system.cpu.iew.wb_consumers                   7993367                       # num instructions consuming a value
system.cpu.iew.wb_count                      10670696                       # cumulative count of insts written-back
system.cpu.iew.wb_fanout                     0.313700                       # average fanout of values written-back
system.cpu.iew.wb_producers                   2507523                       # num instructions producing a value
system.cpu.iew.wb_rate                       0.295456                       # insts written-back per cycle
system.cpu.iew.wb_sent                       10879394                       # cumulative count of insts sent to commit
system.cpu.int_regfile_reads                 24176840                       # number of integer regfile reads
system.cpu.int_regfile_writes                 2947775                       # number of integer regfile writes
system.cpu.ipc                               0.276885                       # IPC: Instructions Per Cycle
system.cpu.ipc_total                         0.276885                       # IPC: Total IPC of All Threads
system.cpu.iq.FU_type_0::No_OpClass                19      0.00%      0.00% # Type of FU issued
system.cpu.iq.FU_type_0::IntAlu               3921305     36.02%     36.02% # Type of FU issued
system.cpu.iq.FU_type_0::IntMult                  177      0.00%     36.02% # Type of FU issued
system.cpu.iq.FU_type_0::IntDiv                    25      0.00%     36.02% # Type of FU issued
system.cpu.iq.FU_type_0::FloatAdd                   5      0.00%     36.02% # Type of FU issued
system.cpu.iq.FU_type_0::FloatCmp                   0      0.00%     36.02% # Type of FU issued
system.cpu.iq.FU_type_0::FloatCvt               32411      0.30%     36.32% # Type of FU issued
system.cpu.iq.FU_type_0::FloatMult              32424      0.30%     36.62% # Type of FU issued
system.cpu.iq.FU_type_0::FloatMultAcc               0      0.00%     36.62% # Type of FU issued
system.cpu.iq.FU_type_0::FloatDiv                   3      0.00%     36.62% # Type of FU issued
system.cpu.iq.FU_type_0::FloatMisc                 21      0.00%     36.62% # Type of FU issued
system.cpu.iq.FU_type_0::FloatSqrt                  0      0.00%     36.62% # Type of FU issued
system.cpu.iq.FU_type_0::SimdAdd                   21      0.00%     36.62% # Type of FU issued
system.cpu.iq.FU_type_0::SimdAddAcc                 0      0.00%     36.62% # Type of FU issued
system.cpu.iq.FU_type_0::SimdAlu                   14      0.00%     36.62% # Type of FU issued
system.cpu.iq.FU_type_0::SimdCmp                   16      0.00%     36.62% # Type of FU issued
system.cpu.iq.FU_type_0::SimdCvt                    0      0.00%     36.62% # Type of FU issued
system.cpu.iq.FU_type_0::SimdMisc                  58      0.00%     36.62% # Type of FU issued
system.cpu.iq.FU_type_0::SimdMult                   0      0.00%     36.62% # Type of FU issued
system.cpu.iq.FU_type_0::SimdMultAcc                0      0.00%     36.62% # Type of FU issued
system.cpu.iq.FU_type_0::SimdShift                  0      0.00%     36.62% # Type of FU issued
system.cpu.iq.FU_type_0::SimdShiftAcc               0      0.00%     36.62% # Type of FU issued
system.cpu.iq.FU_type_0::SimdDiv                    0      0.00%     36.62% # Type of FU issued
system.cpu.iq.FU_type_0::SimdSqrt                   0      0.00%     36.62% # Type of FU issued
system.cpu.iq.FU_type_0::SimdFloatAdd               0      0.00%     36.62% # Type of FU issued
system.cpu.iq.FU_type_0::SimdFloatAlu               0      0.00%     36.62% # Type of FU issued
system.cpu.iq.FU_type_0::SimdFloatCmp               0      0.00%     36.62% # Type of FU issued
system.cpu.iq.FU_type_0::SimdFloatCvt               0      0.00%     36.62% # Type of FU issued
system.cpu.iq.FU_type_0::SimdFloatDiv               0      0.00%     36.62% # Type of FU issued
system.cpu.iq.FU_type_0::SimdFloatMisc              0      0.00%     36.62% # Type of FU issued
system.cpu.iq.FU_type_0::SimdFloatMult              0      0.00%     36.62% # Type of FU issued
system.cpu.iq.FU_type_0::SimdFloatMultAcc            0      0.00%     36.62% # Type of FU issued
system.cpu.iq.FU_type_0::SimdFloatSqrt              0      0.00%     36.62% # Type of FU issued
system.cpu.iq.FU_type_0::SimdReduceAdd              0      0.00%     36.62% # Type of FU issued
system.cpu.iq.FU_type_0::SimdReduceAlu              0      0.00%     36.62% # Type of FU issued
system.cpu.iq.FU_type_0::SimdReduceCmp              0      0.00%     36.62% # Type of FU issued
system.cpu.iq.FU_type_0::SimdFloatReduceAdd            0      0.00%     36.62% # Type of FU issued
system.cpu.iq.FU_type_0::SimdFloatReduceCmp            0      0.00%     36.62% # Type of FU issued
system.cpu.iq.FU_type_0::SimdAes                    0      0.00%     36.62% # Type of FU issued
system.cpu.iq.FU_type_0::SimdAesMix                 0      0.00%     36.62% # Type of FU issued
system.cpu.iq.FU_type_0::SimdSha1Hash               0      0.00%     36.62% # Type of FU issued
system.cpu.iq.FU_type_0::SimdSha1Hash2              0      0.00%     36.62% # Type of FU issued
system.cpu.iq.FU_type_0::SimdSha256Hash             0      0.00%     36.62% # Type of FU issued
system.cpu.iq.FU_type_0::SimdSha256Hash2            0      0.00%     36.62% # Type of FU issued
system.cpu.iq.FU_type_0::SimdShaSigma2              0      0.00%     36.62% # Type of FU issued
system.cpu.iq.FU_type_0::SimdShaSigma3              0      0.00%     36.62% # Type of FU issued
system.cpu.iq.FU_type_0::SimdPredAlu                0      0.00%     36.62% # Type of FU issued
system.cpu.iq.FU_type_0::MemRead                20850      0.19%     36.81% # Type of FU issued
system.cpu.iq.FU_type_0::MemWrite             6878756     63.19%    100.00% # Type of FU issued
system.cpu.iq.FU_type_0::FloatMemRead               0      0.00%    100.00% # Type of FU issued
system.cpu.iq.FU_type_0::FloatMemWrite              0      0.00%    100.00% # Type of FU issued
system.cpu.iq.FU_type_0::IprAccess                  0      0.00%    100.00% # Type of FU issued
system.cpu.iq.FU_type_0::InstPrefetch               0      0.00%    100.00% # Type of FU issued
system.cpu.iq.FU_type_0::total               10886105                       # Type of FU issued
system.cpu.iq.fp_alu_accesses                       0                       # Number of floating point alu accesses
system.cpu.iq.fp_inst_queue_reads                   0                       # Number of floating instruction queue reads
system.cpu.iq.fp_inst_queue_wakeup_accesses            0                       # Number of floating instruction queue wakeup accesses
system.cpu.iq.fp_inst_queue_writes                  0                       # Number of floating instruction queue writes
system.cpu.iq.fu_busy_cnt                      953435                       # FU busy when requested
system.cpu.iq.fu_busy_rate                   0.087583                       # FU busy rate (busy events/executed inst)
system.cpu.iq.fu_full::No_OpClass                   0      0.00%      0.00% # attempts to use FU when none available
system.cpu.iq.fu_full::IntAlu                   13512      1.42%      1.42% # attempts to use FU when none available
system.cpu.iq.fu_full::IntMult                      0      0.00%      1.42% # attempts to use FU when none available
system.cpu.iq.fu_full::IntDiv                       0      0.00%      1.42% # attempts to use FU when none available
system.cpu.iq.fu_full::FloatAdd                     0      0.00%      1.42% # attempts to use FU when none available
system.cpu.iq.fu_full::FloatCmp                     0      0.00%      1.42% # attempts to use FU when none available
system.cpu.iq.fu_full::FloatCvt                     0      0.00%      1.42% # attempts to use FU when none available
system.cpu.iq.fu_full::FloatMult                    0      0.00%      1.42% # attempts to use FU when none available
system.cpu.iq.fu_full::FloatMultAcc                 0      0.00%      1.42% # attempts to use FU when none available
system.cpu.iq.fu_full::FloatDiv                    12      0.00%      1.42% # attempts to use FU when none available
system.cpu.iq.fu_full::FloatMisc                    0      0.00%      1.42% # attempts to use FU when none available
system.cpu.iq.fu_full::FloatSqrt                    0      0.00%      1.42% # attempts to use FU when none available
system.cpu.iq.fu_full::SimdAdd                      0      0.00%      1.42% # attempts to use FU when none available
system.cpu.iq.fu_full::SimdAddAcc                   0      0.00%      1.42% # attempts to use FU when none available
system.cpu.iq.fu_full::SimdAlu                      1      0.00%      1.42% # attempts to use FU when none available
system.cpu.iq.fu_full::SimdCmp                      2      0.00%      1.42% # attempts to use FU when none available
system.cpu.iq.fu_full::SimdCvt                      0      0.00%      1.42% # attempts to use FU when none available
system.cpu.iq.fu_full::SimdMisc                     0      0.00%      1.42% # attempts to use FU when none available
system.cpu.iq.fu_full::SimdMult                     0      0.00%      1.42% # attempts to use FU when none available
system.cpu.iq.fu_full::SimdMultAcc                  0      0.00%      1.42% # attempts to use FU when none available
system.cpu.iq.fu_full::SimdShift                    0      0.00%      1.42% # attempts to use FU when none available
system.cpu.iq.fu_full::SimdShiftAcc                 0      0.00%      1.42% # attempts to use FU when none available
system.cpu.iq.fu_full::SimdDiv                      0      0.00%      1.42% # attempts to use FU when none available
system.cpu.iq.fu_full::SimdSqrt                     0      0.00%      1.42% # attempts to use FU when none available
system.cpu.iq.fu_full::SimdFloatAdd                 0      0.00%      1.42% # attempts to use FU when none available
system.cpu.iq.fu_full::SimdFloatAlu                 0      0.00%      1.42% # attempts to use FU when none available
system.cpu.iq.fu_full::SimdFloatCmp                 0      0.00%      1.42% # attempts to use FU when none available
system.cpu.iq.fu_full::SimdFloatCvt                 0      0.00%      1.42% # attempts to use FU when none available
system.cpu.iq.fu_full::SimdFloatDiv                 0      0.00%      1.42% # attempts to use FU when none available
system.cpu.iq.fu_full::SimdFloatMisc                0      0.00%      1.42% # attempts to use FU when none available
system.cpu.iq.fu_full::SimdFloatMult                0      0.00%      1.42% # attempts to use FU when none available
system.cpu.iq.fu_full::SimdFloatMultAcc             0      0.00%      1.42% # attempts to use FU when none available
system.cpu.iq.fu_full::SimdFloatSqrt                0      0.00%      1.42% # attempts to use FU when none available
system.cpu.iq.fu_full::SimdReduceAdd                0      0.00%      1.42% # attempts to use FU when none available
system.cpu.iq.fu_full::SimdReduceAlu                0      0.00%      1.42% # attempts to use FU when none available
system.cpu.iq.fu_full::SimdReduceCmp                0      0.00%      1.42% # attempts to use FU when none available
system.cpu.iq.fu_full::SimdFloatReduceAdd            0      0.00%      1.42% # attempts to use FU when none available
system.cpu.iq.fu_full::SimdFloatReduceCmp            0      0.00%      1.42% # attempts to use FU when none available
system.cpu.iq.fu_full::SimdAes                      0      0.00%      1.42% # attempts to use FU when none available
system.cpu.iq.fu_full::SimdAesMix                   0      0.00%      1.42% # attempts to use FU when none available
system.cpu.iq.fu_full::SimdSha1Hash                 0      0.00%      1.42% # attempts to use FU when none available
system.cpu.iq.fu_full::SimdSha1Hash2                0      0.00%      1.42% # attempts to use FU when none available
system.cpu.iq.fu_full::SimdSha256Hash               0      0.00%      1.42% # attempts to use FU when none available
system.cpu.iq.fu_full::SimdSha256Hash2              0      0.00%      1.42% # attempts to use FU when none available
system.cpu.iq.fu_full::SimdShaSigma2                0      0.00%      1.42% # attempts to use FU when none available
system.cpu.iq.fu_full::SimdShaSigma3                0      0.00%      1.42% # attempts to use FU when none available
system.cpu.iq.fu_full::SimdPredAlu                  0      0.00%      1.42% # attempts to use FU when none available
system.cpu.iq.fu_full::MemRead                    337      0.04%      1.45% # attempts to use FU when none available
system.cpu.iq.fu_full::MemWrite                939571     98.55%    100.00% # attempts to use FU when none available
system.cpu.iq.fu_full::FloatMemRead                 0      0.00%    100.00% # attempts to use FU when none available
system.cpu.iq.fu_full::FloatMemWrite                0      0.00%    100.00% # attempts to use FU when none available
system.cpu.iq.fu_full::IprAccess                    0      0.00%    100.00% # attempts to use FU when none available
system.cpu.iq.fu_full::InstPrefetch                 0      0.00%    100.00% # attempts to use FU when none available
system.cpu.iq.int_alu_accesses               11520280                       # Number of integer alu accesses
system.cpu.iq.int_inst_queue_reads           58132147                       # Number of integer instruction queue reads
system.cpu.iq.int_inst_queue_wakeup_accesses     10357162                       # Number of integer instruction queue wakeup accesses
system.cpu.iq.int_inst_queue_writes          11226638                       # Number of integer instruction queue writes
system.cpu.iq.iqInstsAdded                   10894727                       # Number of instructions added to the IQ (excludes non-spec)
system.cpu.iq.iqInstsIssued                  10886105                       # Number of instructions issued
system.cpu.iq.iqNonSpecInstsAdded                 195                       # Number of non-speculative instructions added to the IQ
system.cpu.iq.iqSquashedInstsExamined          673100                       # Number of squashed instructions iterated over during squash; mainly for profiling
system.cpu.iq.iqSquashedInstsIssued              1490                       # Number of squashed instructions issued
system.cpu.iq.iqSquashedNonSpecRemoved             33                       # Number of squashed non-spec instructions that were removed
system.cpu.iq.iqSquashedOperandsExamined       656796                       # Number of squashed operands that are examined and possibly removed from graph
system.cpu.iq.issued_per_cycle::samples      36043452                       # Number of insts issued each cycle
system.cpu.iq.issued_per_cycle::mean         0.302027                       # Number of insts issued each cycle
system.cpu.iq.issued_per_cycle::stdev        1.150354                       # Number of insts issued each cycle
system.cpu.iq.issued_per_cycle::underflows            0      0.00%      0.00% # Number of insts issued each cycle
system.cpu.iq.issued_per_cycle::0            32868280     91.19%     91.19% # Number of insts issued each cycle
system.cpu.iq.issued_per_cycle::1              948500      2.63%     93.82% # Number of insts issued each cycle
system.cpu.iq.issued_per_cycle::2              393588      1.09%     94.91% # Number of insts issued each cycle
system.cpu.iq.issued_per_cycle::3              237454      0.66%     95.57% # Number of insts issued each cycle
system.cpu.iq.issued_per_cycle::4              357319      0.99%     96.56% # Number of insts issued each cycle
system.cpu.iq.issued_per_cycle::5              672419      1.87%     98.43% # Number of insts issued each cycle
system.cpu.iq.issued_per_cycle::6              393348      1.09%     99.52% # Number of insts issued each cycle
system.cpu.iq.issued_per_cycle::7               93744      0.26%     99.78% # Number of insts issued each cycle
system.cpu.iq.issued_per_cycle::8               78800      0.22%    100.00% # Number of insts issued each cycle
system.cpu.iq.issued_per_cycle::overflows            0      0.00%    100.00% # Number of insts issued each cycle
system.cpu.iq.issued_per_cycle::min_value            0                       # Number of insts issued each cycle
system.cpu.iq.issued_per_cycle::max_value            8                       # Number of insts issued each cycle
system.cpu.iq.issued_per_cycle::total        36043452                       # Number of insts issued each cycle
system.cpu.iq.rate                           0.301420                       # Inst issue rate
system.cpu.iq.vec_alu_accesses                 319241                       # Number of vector alu accesses
system.cpu.iq.vec_inst_queue_reads             638439                       # Number of vector instruction queue reads
system.cpu.iq.vec_inst_queue_wakeup_accesses       313534                       # Number of vector instruction queue wakeup accesses
system.cpu.iq.vec_inst_queue_writes            341428                       # Number of vector instruction queue writes
system.cpu.itb.accesses                             0                       # DTB accesses
system.cpu.itb.align_faults                         0                       # Number of TLB faults due to alignment restrictions
system.cpu.itb.domain_faults                        0                       # Number of TLB faults due to domain restrictions
system.cpu.itb.flush_entries                        0                       # Number of entries that have been flushed from TLB
system.cpu.itb.flush_tlb                            0                       # Number of times complete TLB was flushed
system.cpu.itb.flush_tlb_asid                       0                       # Number of times TLB was flushed by ASID
system.cpu.itb.flush_tlb_mva                        0                       # Number of times TLB was flushed by MVA
system.cpu.itb.flush_tlb_mva_asid                   0                       # Number of times TLB was flushed by MVA & ASID
system.cpu.itb.hits                                 0                       # DTB hits
system.cpu.itb.inst_accesses                        0                       # ITB inst accesses
system.cpu.itb.inst_hits                            0                       # ITB inst hits
system.cpu.itb.inst_misses                          0                       # ITB inst misses
system.cpu.itb.misses                               0                       # DTB misses
system.cpu.itb.perms_faults                         0                       # Number of TLB faults due to permissions restrictions
system.cpu.itb.prefetch_faults                      0                       # Number of TLB faults due to prefetch
system.cpu.itb.read_accesses                        0                       # DTB read accesses
system.cpu.itb.read_hits                            0                       # DTB read hits
system.cpu.itb.read_misses                          0                       # DTB read misses
system.cpu.itb.stage2_mmu.stage2_tlb.accesses            0                       # DTB accesses
system.cpu.itb.stage2_mmu.stage2_tlb.align_faults            0                       # Number of TLB faults due to alignment restrictions
system.cpu.itb.stage2_mmu.stage2_tlb.domain_faults            0                       # Number of TLB faults due to domain restrictions
system.cpu.itb.stage2_mmu.stage2_tlb.flush_entries            0                       # Number of entries that have been flushed from TLB
system.cpu.itb.stage2_mmu.stage2_tlb.flush_tlb            0                       # Number of times complete TLB was flushed
system.cpu.itb.stage2_mmu.stage2_tlb.flush_tlb_asid            0                       # Number of times TLB was flushed by ASID
system.cpu.itb.stage2_mmu.stage2_tlb.flush_tlb_mva            0                       # Number of times TLB was flushed by MVA
system.cpu.itb.stage2_mmu.stage2_tlb.flush_tlb_mva_asid            0                       # Number of times TLB was flushed by MVA & ASID
system.cpu.itb.stage2_mmu.stage2_tlb.hits            0                       # DTB hits
system.cpu.itb.stage2_mmu.stage2_tlb.inst_accesses            0                       # ITB inst accesses
system.cpu.itb.stage2_mmu.stage2_tlb.inst_hits            0                       # ITB inst hits
system.cpu.itb.stage2_mmu.stage2_tlb.inst_misses            0                       # ITB inst misses
system.cpu.itb.stage2_mmu.stage2_tlb.misses            0                       # DTB misses
system.cpu.itb.stage2_mmu.stage2_tlb.perms_faults            0                       # Number of TLB faults due to permissions restrictions
system.cpu.itb.stage2_mmu.stage2_tlb.prefetch_faults            0                       # Number of TLB faults due to prefetch
system.cpu.itb.stage2_mmu.stage2_tlb.read_accesses            0                       # DTB read accesses
system.cpu.itb.stage2_mmu.stage2_tlb.read_hits            0                       # DTB read hits
system.cpu.itb.stage2_mmu.stage2_tlb.read_misses            0                       # DTB read misses
system.cpu.itb.stage2_mmu.stage2_tlb.walker.walkRequestOrigin_Requested::Data            0                       # Table walker requests started/completed, data/inst
system.cpu.itb.stage2_mmu.stage2_tlb.walker.walkRequestOrigin_Requested::Inst            0                       # Table walker requests started/completed, data/inst
system.cpu.itb.stage2_mmu.stage2_tlb.walker.walkRequestOrigin_Requested::total            0                       # Table walker requests started/completed, data/inst
system.cpu.itb.stage2_mmu.stage2_tlb.walker.walkRequestOrigin_Completed::Data            0                       # Table walker requests started/completed, data/inst
system.cpu.itb.stage2_mmu.stage2_tlb.walker.walkRequestOrigin_Completed::Inst            0                       # Table walker requests started/completed, data/inst
system.cpu.itb.stage2_mmu.stage2_tlb.walker.walkRequestOrigin_Completed::total            0                       # Table walker requests started/completed, data/inst
system.cpu.itb.stage2_mmu.stage2_tlb.walker.walkRequestOrigin::total            0                       # Table walker requests started/completed, data/inst
system.cpu.itb.stage2_mmu.stage2_tlb.walker.walks            0                       # Table walker walks requested
system.cpu.itb.stage2_mmu.stage2_tlb.write_accesses            0                       # DTB write accesses
system.cpu.itb.stage2_mmu.stage2_tlb.write_hits            0                       # DTB write hits
system.cpu.itb.stage2_mmu.stage2_tlb.write_misses            0                       # DTB write misses
system.cpu.itb.walker.walkRequestOrigin_Requested::Data            0                       # Table walker requests started/completed, data/inst
system.cpu.itb.walker.walkRequestOrigin_Requested::Inst            0                       # Table walker requests started/completed, data/inst
system.cpu.itb.walker.walkRequestOrigin_Requested::total            0                       # Table walker requests started/completed, data/inst
system.cpu.itb.walker.walkRequestOrigin_Completed::Data            0                       # Table walker requests started/completed, data/inst
system.cpu.itb.walker.walkRequestOrigin_Completed::Inst            0                       # Table walker requests started/completed, data/inst
system.cpu.itb.walker.walkRequestOrigin_Completed::total            0                       # Table walker requests started/completed, data/inst
system.cpu.itb.walker.walkRequestOrigin::total            0                       # Table walker requests started/completed, data/inst
system.cpu.itb.walker.walks                         0                       # Table walker walks requested
system.cpu.itb.write_accesses                       0                       # DTB write accesses
system.cpu.itb.write_hits                           0                       # DTB write hits
system.cpu.itb.write_misses                         0                       # DTB write misses
system.cpu.memDep0.conflictingLoads                38                       # Number of conflicting loads.
system.cpu.memDep0.conflictingStores              373                       # Number of conflicting stores.
system.cpu.memDep0.insertedLoads                20941                       # Number of loads inserted to the mem dependence unit.
system.cpu.memDep0.insertedStores             6882492                       # Number of stores inserted to the mem dependence unit.
system.cpu.misc_regfile_reads                10919670                       # number of misc regfile reads
system.cpu.misc_regfile_writes                  60549                       # number of misc regfile writes
system.cpu.numCycles                         36116073                       # number of cpu cycles simulated
system.cpu.numWorkItemsCompleted                    0                       # number of work items this cpu completed
system.cpu.numWorkItemsStarted                      0                       # number of work items this cpu started
system.cpu.rename.BlockCycles                 5011455                       # Number of cycles rename is blocking
system.cpu.rename.CommittedMaps               5663091                       # Number of HB maps that are committed
system.cpu.rename.IQFullEvents                     40                       # Number of times rename has blocked due to IQ full
system.cpu.rename.IdleCycles                   668098                       # Number of cycles rename is idle
system.cpu.rename.LQFullEvents                      2                       # Number of times rename has blocked due to LQ full
system.cpu.rename.ROBFullEvents                     9                       # Number of times rename has blocked due to ROB full
system.cpu.rename.RenameLookups              28249511                       # Number of register rename lookups that rename has made
system.cpu.rename.RenamedInsts               10922388                       # Number of instructions processed by rename
system.cpu.rename.RenamedOperands             6063582                       # Number of destination operands rename has renamed
system.cpu.rename.RunCycles                   1328060                       # Number of cycles rename is running
system.cpu.rename.SQFullEvents               28933026                       # Number of times rename has blocked due to SQ full
system.cpu.rename.SquashCycles                  14655                       # Number of cycles rename is squashing
system.cpu.rename.UnblockCycles              29002402                       # Number of cycles rename is unblocking
system.cpu.rename.UndoneMaps                   400472                       # Number of HB maps that are undone due to squashing
system.cpu.rename.int_rename_lookups         24251903                       # Number of integer rename lookups
system.cpu.rename.serializeStallCycles          18782                       # count of cycles rename stalled for serializing inst
system.cpu.rename.serializingInsts                636                       # count of serializing insts renamed
system.cpu.rename.skidInsts                   2953629                       # count of insts added to the skid buffer
system.cpu.rename.tempSerializingInsts            199                       # count of temporary serializing insts renamed
system.cpu.rename.vec_rename_lookups           320452                       # Number of vector rename lookups
system.cpu.rob.rob_reads                     46211222                       # The number of ROB reads
system.cpu.rob.rob_writes                    21778240                       # The number of ROB writes
system.cpu.timesIdled                            1475                       # Number of times that the entire CPU went into an idle state and unscheduled itself
system.cpu.vec_regfile_reads                   317877                       # number of vector regfile reads
system.cpu.vec_regfile_writes                   64501                       # number of vector regfile writes
system.cpu.workload.numSyscalls                    61                       # Number of system calls
system.membus.snoop_filter.hit_multi_requests            0                       # Number of requests hitting in the snoop filter with multiple (>1) holders of the requested data.
system.membus.snoop_filter.hit_multi_snoops            0                       # Number of snoops hitting in the snoop filter with multiple (>1) holders of the requested data.
system.membus.snoop_filter.hit_single_requests       658221                       # Number of requests hitting in the snoop filter with a single holder of the requested data.
system.membus.snoop_filter.hit_single_snoops            0                       # Number of snoops hitting in the snoop filter with a single holder of the requested data.
system.membus.snoop_filter.tot_requests       1447776                       # Total number of requests made to the snoop filter.
system.membus.snoop_filter.tot_snoops               0                       # Total number of snoops made to the snoop filter.
system.tol2bus.snoop_filter.hit_multi_requests            4                       # Number of requests hitting in the snoop filter with multiple (>1) holders of the requested data.
system.tol2bus.snoop_filter.hit_multi_snoops            0                       # Number of snoops hitting in the snoop filter with multiple (>1) holders of the requested data.
system.tol2bus.snoop_filter.hit_single_requests       791080                       # Number of requests hitting in the snoop filter with a single holder of the requested data.
system.tol2bus.snoop_filter.hit_single_snoops          256                       # Number of snoops hitting in the snoop filter with a single holder of the requested data.
system.tol2bus.snoop_filter.tot_requests      1583446                       # Total number of requests made to the snoop filter.
system.tol2bus.snoop_filter.tot_snoops            256                       # Total number of snoops made to the snoop filter.
system.membus.trans_dist::ReadResp                988                       # Transaction distribution
system.membus.trans_dist::WritebackDirty       657507                       # Transaction distribution
system.membus.trans_dist::CleanEvict              714                       # Transaction distribution
system.membus.trans_dist::ReadExReq            788443                       # Transaction distribution
system.membus.trans_dist::ReadExResp           788440                       # Transaction distribution
system.membus.trans_dist::ReadSharedReq           988                       # Transaction distribution
system.membus.trans_dist::InvalidateReq           124                       # Transaction distribution
system.membus.pkt_count_system.l2.mem_side::system.mem_ctrls.port      2237204                       # Packet count per connected master and slave (bytes)
system.membus.pkt_count::total                2237204                       # Packet count per connected master and slave (bytes)
system.membus.pkt_size_system.l2.mem_side::system.mem_ctrls.port     92603840                       # Cumulative packet size per connected master and slave (bytes)
system.membus.pkt_size::total                92603840                       # Cumulative packet size per connected master and slave (bytes)
system.membus.snoops                                0                       # Total snoops (count)
system.membus.snoopTraffic                          0                       # Total snoop traffic (bytes)
system.membus.snoop_fanout::samples            789555                       # Request fanout histogram
system.membus.snoop_fanout::mean                    0                       # Request fanout histogram
system.membus.snoop_fanout::stdev                   0                       # Request fanout histogram
system.membus.snoop_fanout::underflows              0      0.00%      0.00% # Request fanout histogram
system.membus.snoop_fanout::0                  789555    100.00%    100.00% # Request fanout histogram
system.membus.snoop_fanout::1                       0      0.00%    100.00% # Request fanout histogram
system.membus.snoop_fanout::overflows               0      0.00%    100.00% # Request fanout histogram
system.membus.snoop_fanout::min_value               0                       # Request fanout histogram
system.membus.snoop_fanout::max_value               0                       # Request fanout histogram
system.membus.snoop_fanout::total              789555                       # Request fanout histogram
system.membus.reqLayer0.occupancy          4109326500                       # Layer occupancy (ticks)
system.membus.reqLayer0.utilization              22.8                       # Layer utilization (%)
system.membus.respLayer1.occupancy         4040133750                       # Layer occupancy (ticks)
system.membus.respLayer1.utilization             22.4                       # Layer utilization (%)
system.membus.power_state.pwrStateResidencyTicks::UNDEFINED  18058035500                       # Cumulative time (in ticks) in various power states
system.tol2bus.trans_dist::ReadResp              3790                       # Transaction distribution
system.tol2bus.trans_dist::WritebackDirty      1446446                       # Transaction distribution
system.tol2bus.trans_dist::WritebackClean         2043                       # Transaction distribution
system.tol2bus.trans_dist::CleanEvict            1070                       # Transaction distribution
system.tol2bus.trans_dist::ReadExReq           788452                       # Transaction distribution
system.tol2bus.trans_dist::ReadExResp          788446                       # Transaction distribution
system.tol2bus.trans_dist::ReadCleanReq          2299                       # Transaction distribution
system.tol2bus.trans_dist::ReadSharedReq         1491                       # Transaction distribution
system.tol2bus.trans_dist::InvalidateReq          124                       # Transaction distribution
system.tol2bus.trans_dist::InvalidateResp          124                       # Transaction distribution
system.tol2bus.pkt_count_system.cpu.icache.mem_side::system.l2.cpu_side         6641                       # Packet count per connected master and slave (bytes)
system.tol2bus.pkt_count_system.cpu.dcache.mem_side::system.l2.cpu_side      2369165                       # Packet count per connected master and slave (bytes)
system.tol2bus.pkt_count::total               2375806                       # Packet count per connected master and slave (bytes)
system.tol2bus.pkt_size_system.cpu.icache.mem_side::system.l2.cpu_side       277888                       # Cumulative packet size per connected master and slave (bytes)
system.tol2bus.pkt_size_system.cpu.dcache.mem_side::system.l2.cpu_side    101047936                       # Cumulative packet size per connected master and slave (bytes)
system.tol2bus.pkt_size::total              101325824                       # Cumulative packet size per connected master and slave (bytes)
system.tol2bus.snoops                          658479                       # Total snoops (count)
system.tol2bus.snoopTraffic                  42080576                       # Total snoop traffic (bytes)
system.tol2bus.snoop_fanout::samples          1450845                       # Request fanout histogram
system.tol2bus.snoop_fanout::mean            0.000179                       # Request fanout histogram
system.tol2bus.snoop_fanout::stdev           0.013386                       # Request fanout histogram
system.tol2bus.snoop_fanout::underflows             0      0.00%      0.00% # Request fanout histogram
system.tol2bus.snoop_fanout::0                1450585     99.98%     99.98% # Request fanout histogram
system.tol2bus.snoop_fanout::1                    260      0.02%    100.00% # Request fanout histogram
system.tol2bus.snoop_fanout::2                      0      0.00%    100.00% # Request fanout histogram
system.tol2bus.snoop_fanout::overflows              0      0.00%    100.00% # Request fanout histogram
system.tol2bus.snoop_fanout::min_value              0                       # Request fanout histogram
system.tol2bus.snoop_fanout::max_value              1                       # Request fanout histogram
system.tol2bus.snoop_fanout::total            1450845                       # Request fanout histogram
system.tol2bus.reqLayer0.occupancy         1582703000                       # Layer occupancy (ticks)
system.tol2bus.reqLayer0.utilization              8.8                       # Layer utilization (%)
system.tol2bus.respLayer1.occupancy        1184968498                       # Layer occupancy (ticks)
system.tol2bus.respLayer1.utilization             6.6                       # Layer utilization (%)
system.tol2bus.respLayer0.occupancy           3448500                       # Layer occupancy (ticks)
system.tol2bus.respLayer0.utilization             0.0                       # Layer utilization (%)
system.tol2bus.power_state.pwrStateResidencyTicks::UNDEFINED  18058035500                       # Cumulative time (in ticks) in various power states
system.voltage_domain.voltage                       1                       # Voltage in Volts
system.clk_domain.clock                          1000                       # Clock period in ticks
system.l2.demand_hits::.cpu.inst                 1429                       # number of demand (read+write) hits
system.l2.demand_hits::.cpu.data                 1382                       # number of demand (read+write) hits
system.l2.demand_hits::total                     2811                       # number of demand (read+write) hits
system.l2.overall_hits::.cpu.inst                1429                       # number of overall hits
system.l2.overall_hits::.cpu.data                1382                       # number of overall hits
system.l2.overall_hits::total                    2811                       # number of overall hits
system.l2.demand_misses::.cpu.inst                870                       # number of demand (read+write) misses
system.l2.demand_misses::.cpu.data             788561                       # number of demand (read+write) misses
system.l2.demand_misses::total                 789431                       # number of demand (read+write) misses
system.l2.overall_misses::.cpu.inst               870                       # number of overall misses
system.l2.overall_misses::.cpu.data            788561                       # number of overall misses
system.l2.overall_misses::total                789431                       # number of overall misses
system.l2.demand_miss_latency::.cpu.inst     68198500                       # number of demand (read+write) miss cycles
system.l2.demand_miss_latency::.cpu.data  98376359000                       # number of demand (read+write) miss cycles
system.l2.demand_miss_latency::total      98444557500                       # number of demand (read+write) miss cycles
system.l2.overall_miss_latency::.cpu.inst     68198500                       # number of overall miss cycles
system.l2.overall_miss_latency::.cpu.data  98376359000                       # number of overall miss cycles
system.l2.overall_miss_latency::total     98444557500                       # number of overall miss cycles
system.l2.demand_accesses::.cpu.inst             2299                       # number of demand (read+write) accesses
system.l2.demand_accesses::.cpu.data           789943                       # number of demand (read+write) accesses
system.l2.demand_accesses::total               792242                       # number of demand (read+write) accesses
system.l2.overall_accesses::.cpu.inst            2299                       # number of overall (read+write) accesses
system.l2.overall_accesses::.cpu.data          789943                       # number of overall (read+write) accesses
system.l2.overall_accesses::total              792242                       # number of overall (read+write) accesses
system.l2.demand_miss_rate::.cpu.inst        0.378425                       # miss rate for demand accesses
system.l2.demand_miss_rate::.cpu.data        0.998251                       # miss rate for demand accesses
system.l2.demand_miss_rate::total            0.996452                       # miss rate for demand accesses
system.l2.overall_miss_rate::.cpu.inst       0.378425                       # miss rate for overall accesses
system.l2.overall_miss_rate::.cpu.data       0.998251                       # miss rate for overall accesses
system.l2.overall_miss_rate::total           0.996452                       # miss rate for overall accesses
system.l2.demand_avg_miss_latency::.cpu.inst 78389.080460                       # average overall miss latency
system.l2.demand_avg_miss_latency::.cpu.data 124754.278997                       # average overall miss latency
system.l2.demand_avg_miss_latency::total 124703.181785                       # average overall miss latency
system.l2.overall_avg_miss_latency::.cpu.inst 78389.080460                       # average overall miss latency
system.l2.overall_avg_miss_latency::.cpu.data 124754.278997                       # average overall miss latency
system.l2.overall_avg_miss_latency::total 124703.181785                       # average overall miss latency
system.l2.blocked_cycles::no_mshrs                  0                       # number of cycles access was blocked
system.l2.blocked_cycles::no_targets                0                       # number of cycles access was blocked
system.l2.blocked::no_mshrs                         0                       # number of cycles access was blocked
system.l2.blocked::no_targets                       0                       # number of cycles access was blocked
system.l2.avg_blocked_cycles::no_mshrs            nan                       # average number of cycles each access was blocked
system.l2.avg_blocked_cycles::no_targets          nan                       # average number of cycles each access was blocked
system.l2.writebacks::.writebacks              657509                       # number of writebacks
system.l2.writebacks::total                    657509                       # number of writebacks
system.l2.demand_mshr_misses::.cpu.inst           870                       # number of demand (read+write) MSHR misses
system.l2.demand_mshr_misses::.cpu.data        788561                       # number of demand (read+write) MSHR misses
system.l2.demand_mshr_misses::total            789431                       # number of demand (read+write) MSHR misses
system.l2.overall_mshr_misses::.cpu.inst          870                       # number of overall MSHR misses
system.l2.overall_mshr_misses::.cpu.data       788561                       # number of overall MSHR misses
system.l2.overall_mshr_misses::total           789431                       # number of overall MSHR misses
system.l2.demand_mshr_miss_latency::.cpu.inst     59498500                       # number of demand (read+write) MSHR miss cycles
system.l2.demand_mshr_miss_latency::.cpu.data  90490789000                       # number of demand (read+write) MSHR miss cycles
system.l2.demand_mshr_miss_latency::total  90550287500                       # number of demand (read+write) MSHR miss cycles
system.l2.overall_mshr_miss_latency::.cpu.inst     59498500                       # number of overall MSHR miss cycles
system.l2.overall_mshr_miss_latency::.cpu.data  90490789000                       # number of overall MSHR miss cycles
system.l2.overall_mshr_miss_latency::total  90550287500                       # number of overall MSHR miss cycles
system.l2.demand_mshr_miss_rate::.cpu.inst     0.378425                       # mshr miss rate for demand accesses
system.l2.demand_mshr_miss_rate::.cpu.data     0.998251                       # mshr miss rate for demand accesses
system.l2.demand_mshr_miss_rate::total       0.996452                       # mshr miss rate for demand accesses
system.l2.overall_mshr_miss_rate::.cpu.inst     0.378425                       # mshr miss rate for overall accesses
system.l2.overall_mshr_miss_rate::.cpu.data     0.998251                       # mshr miss rate for overall accesses
system.l2.overall_mshr_miss_rate::total      0.996452                       # mshr miss rate for overall accesses
system.l2.demand_avg_mshr_miss_latency::.cpu.inst 68389.080460                       # average overall mshr miss latency
system.l2.demand_avg_mshr_miss_latency::.cpu.data 114754.329722                       # average overall mshr miss latency
system.l2.demand_avg_mshr_miss_latency::total 114703.232455                       # average overall mshr miss latency
system.l2.overall_avg_mshr_miss_latency::.cpu.inst 68389.080460                       # average overall mshr miss latency
system.l2.overall_avg_mshr_miss_latency::.cpu.data 114754.329722                       # average overall mshr miss latency
system.l2.overall_avg_mshr_miss_latency::total 114703.232455                       # average overall mshr miss latency
system.l2.replacements                         658479                       # number of replacements
system.l2.WritebackDirty_hits::.writebacks       788937                       # number of WritebackDirty hits
system.l2.WritebackDirty_hits::total           788937                       # number of WritebackDirty hits
system.l2.WritebackDirty_accesses::.writebacks       788937                       # number of WritebackDirty accesses(hits+misses)
system.l2.WritebackDirty_accesses::total       788937                       # number of WritebackDirty accesses(hits+misses)
system.l2.WritebackClean_hits::.writebacks         2040                       # number of WritebackClean hits
system.l2.WritebackClean_hits::total             2040                       # number of WritebackClean hits
system.l2.WritebackClean_accesses::.writebacks         2040                       # number of WritebackClean accesses(hits+misses)
system.l2.WritebackClean_accesses::total         2040                       # number of WritebackClean accesses(hits+misses)
system.l2.ReadExReq_hits::.cpu.data                 9                       # number of ReadExReq hits
system.l2.ReadExReq_hits::total                     9                       # number of ReadExReq hits
system.l2.ReadExReq_misses::.cpu.data          788443                       # number of ReadExReq misses
system.l2.ReadExReq_misses::total              788443                       # number of ReadExReq misses
system.l2.ReadExReq_miss_latency::.cpu.data  98366276000                       # number of ReadExReq miss cycles
system.l2.ReadExReq_miss_latency::total   98366276000                       # number of ReadExReq miss cycles
system.l2.ReadExReq_accesses::.cpu.data        788452                       # number of ReadExReq accesses(hits+misses)
system.l2.ReadExReq_accesses::total            788452                       # number of ReadExReq accesses(hits+misses)
system.l2.ReadExReq_miss_rate::.cpu.data     0.999989                       # miss rate for ReadExReq accesses
system.l2.ReadExReq_miss_rate::total         0.999989                       # miss rate for ReadExReq accesses
system.l2.ReadExReq_avg_miss_latency::.cpu.data 124760.161483                       # average ReadExReq miss latency
system.l2.ReadExReq_avg_miss_latency::total 124760.161483                       # average ReadExReq miss latency
system.l2.ReadExReq_mshr_misses::.cpu.data       788443                       # number of ReadExReq MSHR misses
system.l2.ReadExReq_mshr_misses::total         788443                       # number of ReadExReq MSHR misses
system.l2.ReadExReq_mshr_miss_latency::.cpu.data  90481886000                       # number of ReadExReq MSHR miss cycles
system.l2.ReadExReq_mshr_miss_latency::total  90481886000                       # number of ReadExReq MSHR miss cycles
system.l2.ReadExReq_mshr_miss_rate::.cpu.data     0.999989                       # mshr miss rate for ReadExReq accesses
system.l2.ReadExReq_mshr_miss_rate::total     0.999989                       # mshr miss rate for ReadExReq accesses
system.l2.ReadExReq_avg_mshr_miss_latency::.cpu.data 114760.212216                       # average ReadExReq mshr miss latency
system.l2.ReadExReq_avg_mshr_miss_latency::total 114760.212216                       # average ReadExReq mshr miss latency
system.l2.ReadCleanReq_hits::.cpu.inst           1429                       # number of ReadCleanReq hits
system.l2.ReadCleanReq_hits::total               1429                       # number of ReadCleanReq hits
system.l2.ReadCleanReq_misses::.cpu.inst          870                       # number of ReadCleanReq misses
system.l2.ReadCleanReq_misses::total              870                       # number of ReadCleanReq misses
system.l2.ReadCleanReq_miss_latency::.cpu.inst     68198500                       # number of ReadCleanReq miss cycles
system.l2.ReadCleanReq_miss_latency::total     68198500                       # number of ReadCleanReq miss cycles
system.l2.ReadCleanReq_accesses::.cpu.inst         2299                       # number of ReadCleanReq accesses(hits+misses)
system.l2.ReadCleanReq_accesses::total           2299                       # number of ReadCleanReq accesses(hits+misses)
system.l2.ReadCleanReq_miss_rate::.cpu.inst     0.378425                       # miss rate for ReadCleanReq accesses
system.l2.ReadCleanReq_miss_rate::total      0.378425                       # miss rate for ReadCleanReq accesses
[...]
system.cpu.dcache.overall_miss_latency::.cpu.data 328976678000                       # number of overall miss cycles
system.cpu.dcache.overall_miss_latency::total 328976678000                       # number of overall miss cycles
system.cpu.dcache.demand_accesses::.cpu.data      6486781                       # number of demand (read+write) accesses
system.cpu.dcache.demand_accesses::total      6486781                       # number of demand (read+write) accesses
system.cpu.dcache.overall_accesses::.cpu.data      6486850                       # number of overall (read+write) accesses
system.cpu.dcache.overall_accesses::total      6486850                       # number of overall (read+write) accesses
system.cpu.dcache.demand_miss_rate::.cpu.data     0.461857                       # miss rate for demand accesses
system.cpu.dcache.demand_miss_rate::total     0.461857                       # miss rate for demand accesses
system.cpu.dcache.overall_miss_rate::.cpu.data     0.461853                       # miss rate for overall accesses
system.cpu.dcache.overall_miss_rate::total     0.461853                       # miss rate for overall accesses
system.cpu.dcache.demand_avg_miss_latency::.cpu.data 109806.655823                       # average overall miss latency
system.cpu.dcache.demand_avg_miss_latency::total 109806.655823                       # average overall miss latency
system.cpu.dcache.overall_avg_miss_latency::.cpu.data 109806.472566                       # average overall miss latency
system.cpu.dcache.overall_avg_miss_latency::total 109806.472566                       # average overall miss latency
system.cpu.dcache.blocked_cycles::no_mshrs            0                       # number of cycles access was blocked
system.cpu.dcache.blocked_cycles::no_targets            0                       # number of cycles access was blocked
system.cpu.dcache.blocked::no_mshrs                 0                       # number of cycles access was blocked
system.cpu.dcache.blocked::no_targets               0                       # number of cycles access was blocked
system.cpu.dcache.avg_blocked_cycles::no_mshrs          nan                       # average number of cycles each access was blocked
system.cpu.dcache.avg_blocked_cycles::no_targets          nan                       # average number of cycles each access was blocked
system.cpu.dcache.writebacks::.writebacks       788937                       # number of writebacks
system.cpu.dcache.writebacks::total            788937                       # number of writebacks
system.cpu.dcache.demand_mshr_hits::.cpu.data      2205900                       # number of demand (read+write) MSHR hits
system.cpu.dcache.demand_mshr_hits::total      2205900                       # number of demand (read+write) MSHR hits
system.cpu.dcache.overall_mshr_hits::.cpu.data      2205900                       # number of overall MSHR hits
system.cpu.dcache.overall_mshr_hits::total      2205900                       # number of overall MSHR hits
system.cpu.dcache.demand_mshr_misses::.cpu.data       790063                       # number of demand (read+write) MSHR misses
system.cpu.dcache.demand_mshr_misses::total       790063                       # number of demand (read+write) MSHR misses
system.cpu.dcache.overall_mshr_misses::.cpu.data       790068                       # number of overall MSHR misses
system.cpu.dcache.overall_mshr_misses::total       790068                       # number of overall MSHR misses
system.cpu.dcache.demand_mshr_miss_latency::.cpu.data 100538071500                       # number of demand (read+write) MSHR miss cycles
system.cpu.dcache.demand_mshr_miss_latency::total 100538071500                       # number of demand (read+write) MSHR miss cycles
system.cpu.dcache.overall_mshr_miss_latency::.cpu.data 100538507500                       # number of overall MSHR miss cycles
system.cpu.dcache.overall_mshr_miss_latency::total 100538507500                       # number of overall MSHR miss cycles
system.cpu.dcache.demand_mshr_miss_rate::.cpu.data     0.121796                       # mshr miss rate for demand accesses
system.cpu.dcache.demand_mshr_miss_rate::total     0.121796                       # mshr miss rate for demand accesses
system.cpu.dcache.overall_mshr_miss_rate::.cpu.data     0.121795                       # mshr miss rate for overall accesses
system.cpu.dcache.overall_mshr_miss_rate::total     0.121795                       # mshr miss rate for overall accesses
system.cpu.dcache.demand_avg_mshr_miss_latency::.cpu.data 127253.233603                       # average overall mshr miss latency
system.cpu.dcache.demand_avg_mshr_miss_latency::total 127253.233603                       # average overall mshr miss latency
system.cpu.dcache.overall_avg_mshr_miss_latency::.cpu.data 127252.980123                       # average overall mshr miss latency
system.cpu.dcache.overall_avg_mshr_miss_latency::total 127252.980123                       # average overall mshr miss latency
system.cpu.dcache.replacements                 789037                       # number of replacements
system.cpu.dcache.ReadReq_hits::.cpu.data        16751                       # number of ReadReq hits
system.cpu.dcache.ReadReq_hits::total           16751                       # number of ReadReq hits
system.cpu.dcache.ReadReq_misses::.cpu.data         2202                       # number of ReadReq misses
system.cpu.dcache.ReadReq_misses::total          2202                       # number of ReadReq misses
system.cpu.dcache.ReadReq_miss_latency::.cpu.data     48878000                       # number of ReadReq miss cycles
system.cpu.dcache.ReadReq_miss_latency::total     48878000                       # number of ReadReq miss cycles
system.cpu.dcache.ReadReq_accesses::.cpu.data        18953                       # number of ReadReq accesses(hits+misses)
system.cpu.dcache.ReadReq_accesses::total        18953                       # number of ReadReq accesses(hits+misses)
system.cpu.dcache.ReadReq_miss_rate::.cpu.data     0.116182                       # miss rate for ReadReq accesses
system.cpu.dcache.ReadReq_miss_rate::total     0.116182                       # miss rate for ReadReq accesses
system.cpu.dcache.ReadReq_avg_miss_latency::.cpu.data 22197.093551                       # average ReadReq miss latency
system.cpu.dcache.ReadReq_avg_miss_latency::total 22197.093551                       # average ReadReq miss latency
system.cpu.dcache.ReadReq_mshr_hits::.cpu.data          717                       # number of ReadReq MSHR hits
system.cpu.dcache.ReadReq_mshr_hits::total          717                       # number of ReadReq MSHR hits
system.cpu.dcache.ReadReq_mshr_misses::.cpu.data         1485                       # number of ReadReq MSHR misses
system.cpu.dcache.ReadReq_mshr_misses::total         1485                       # number of ReadReq MSHR misses
system.cpu.dcache.ReadReq_mshr_miss_latency::.cpu.data     27789000                       # number of ReadReq MSHR miss cycles
system.cpu.dcache.ReadReq_mshr_miss_latency::total     27789000                       # number of ReadReq MSHR miss cycles
system.cpu.dcache.ReadReq_mshr_miss_rate::.cpu.data     0.078352                       # mshr miss rate for ReadReq accesses
system.cpu.dcache.ReadReq_mshr_miss_rate::total     0.078352                       # mshr miss rate for ReadReq accesses
system.cpu.dcache.ReadReq_avg_mshr_miss_latency::.cpu.data 18713.131313                       # average ReadReq mshr miss latency
system.cpu.dcache.ReadReq_avg_mshr_miss_latency::total 18713.131313                       # average ReadReq mshr miss latency
system.cpu.dcache.WriteReq_hits::.cpu.data      3474047                       # number of WriteReq hits
system.cpu.dcache.WriteReq_hits::total        3474047                       # number of WriteReq hits
system.cpu.dcache.WriteReq_misses::.cpu.data      2993660                       # number of WriteReq misses
system.cpu.dcache.WriteReq_misses::total      2993660                       # number of WriteReq misses
system.cpu.dcache.WriteReq_miss_latency::.cpu.data 328924591000                       # number of WriteReq miss cycles
system.cpu.dcache.WriteReq_miss_latency::total 328924591000                       # number of WriteReq miss cycles
system.cpu.dcache.WriteReq_accesses::.cpu.data      6467707                       # number of WriteReq accesses(hits+misses)
system.cpu.dcache.WriteReq_accesses::total      6467707                       # number of WriteReq accesses(hits+misses)
system.cpu.dcache.WriteReq_miss_rate::.cpu.data     0.462863                       # miss rate for WriteReq accesses
system.cpu.dcache.WriteReq_miss_rate::total     0.462863                       # miss rate for WriteReq accesses
system.cpu.dcache.WriteReq_avg_miss_latency::.cpu.data 109873.730150                       # average WriteReq miss latency
system.cpu.dcache.WriteReq_avg_miss_latency::total 109873.730150                       # average WriteReq miss latency
system.cpu.dcache.WriteReq_mshr_hits::.cpu.data      2205183                       # number of WriteReq MSHR hits
system.cpu.dcache.WriteReq_mshr_hits::total      2205183                       # number of WriteReq MSHR hits
system.cpu.dcache.WriteReq_mshr_misses::.cpu.data       788477                       # number of WriteReq MSHR misses
system.cpu.dcache.WriteReq_mshr_misses::total       788477                       # number of WriteReq MSHR misses
system.cpu.dcache.WriteReq_mshr_miss_latency::.cpu.data 100507174500                       # number of WriteReq MSHR miss cycles
system.cpu.dcache.WriteReq_mshr_miss_latency::total 100507174500                       # number of WriteReq MSHR miss cycles
system.cpu.dcache.WriteReq_mshr_miss_rate::.cpu.data     0.121910                       # mshr miss rate for WriteReq accesses
system.cpu.dcache.WriteReq_mshr_miss_rate::total     0.121910                       # mshr miss rate for WriteReq accesses
system.cpu.dcache.WriteReq_avg_mshr_miss_latency::.cpu.data 127470.014344                       # average WriteReq mshr miss latency
system.cpu.dcache.WriteReq_avg_mshr_miss_latency::total 127470.014344                       # average WriteReq mshr miss latency
system.cpu.dcache.SoftPFReq_hits::.cpu.data           64                       # number of SoftPFReq hits
system.cpu.dcache.SoftPFReq_hits::total            64                       # number of SoftPFReq hits
system.cpu.dcache.SoftPFReq_misses::.cpu.data            5                       # number of SoftPFReq misses
system.cpu.dcache.SoftPFReq_misses::total            5                       # number of SoftPFReq misses
system.cpu.dcache.SoftPFReq_accesses::.cpu.data           69                       # number of SoftPFReq accesses(hits+misses)
system.cpu.dcache.SoftPFReq_accesses::total           69                       # number of SoftPFReq accesses(hits+misses)
system.cpu.dcache.SoftPFReq_miss_rate::.cpu.data     0.072464                       # miss rate for SoftPFReq accesses
system.cpu.dcache.SoftPFReq_miss_rate::total     0.072464                       # miss rate for SoftPFReq accesses
system.cpu.dcache.SoftPFReq_mshr_misses::.cpu.data            5                       # number of SoftPFReq MSHR misses
system.cpu.dcache.SoftPFReq_mshr_misses::total            5                       # number of SoftPFReq MSHR misses
system.cpu.dcache.SoftPFReq_mshr_miss_latency::.cpu.data       436000                       # number of SoftPFReq MSHR miss cycles
system.cpu.dcache.SoftPFReq_mshr_miss_latency::total       436000                       # number of SoftPFReq MSHR miss cycles
system.cpu.dcache.SoftPFReq_mshr_miss_rate::.cpu.data     0.072464                       # mshr miss rate for SoftPFReq accesses
system.cpu.dcache.SoftPFReq_mshr_miss_rate::total     0.072464                       # mshr miss rate for SoftPFReq accesses
system.cpu.dcache.SoftPFReq_avg_mshr_miss_latency::.cpu.data        87200                       # average SoftPFReq mshr miss latency
system.cpu.dcache.SoftPFReq_avg_mshr_miss_latency::total        87200                       # average SoftPFReq mshr miss latency
system.cpu.dcache.WriteLineReq_hits::.cpu.data           20                       # number of WriteLineReq hits
system.cpu.dcache.WriteLineReq_hits::total           20                       # number of WriteLineReq hits
system.cpu.dcache.WriteLineReq_misses::.cpu.data          101                       # number of WriteLineReq misses
system.cpu.dcache.WriteLineReq_misses::total          101                       # number of WriteLineReq misses
system.cpu.dcache.WriteLineReq_miss_latency::.cpu.data      3209000                       # number of WriteLineReq miss cycles
system.cpu.dcache.WriteLineReq_miss_latency::total      3209000                       # number of WriteLineReq miss cycles
system.cpu.dcache.WriteLineReq_accesses::.cpu.data          121                       # number of WriteLineReq accesses(hits+misses)
system.cpu.dcache.WriteLineReq_accesses::total          121                       # number of WriteLineReq accesses(hits+misses)
system.cpu.dcache.WriteLineReq_miss_rate::.cpu.data     0.834711                       # miss rate for WriteLineReq accesses
system.cpu.dcache.WriteLineReq_miss_rate::total     0.834711                       # miss rate for WriteLineReq accesses
system.cpu.dcache.WriteLineReq_avg_miss_latency::.cpu.data 31772.277228                       # average WriteLineReq miss latency
system.cpu.dcache.WriteLineReq_avg_miss_latency::total 31772.277228                       # average WriteLineReq miss latency
system.cpu.dcache.WriteLineReq_mshr_misses::.cpu.data          101                       # number of WriteLineReq MSHR misses
system.cpu.dcache.WriteLineReq_mshr_misses::total          101                       # number of WriteLineReq MSHR misses
system.cpu.dcache.WriteLineReq_mshr_miss_latency::.cpu.data      3108000                       # number of WriteLineReq MSHR miss cycles
system.cpu.dcache.WriteLineReq_mshr_miss_latency::total      3108000                       # number of WriteLineReq MSHR miss cycles
system.cpu.dcache.WriteLineReq_mshr_miss_rate::.cpu.data     0.834711                       # mshr miss rate for WriteLineReq accesses
system.cpu.dcache.WriteLineReq_mshr_miss_rate::total     0.834711                       # mshr miss rate for WriteLineReq accesses
system.cpu.dcache.WriteLineReq_avg_mshr_miss_latency::.cpu.data 30772.277228                       # average WriteLineReq mshr miss latency
system.cpu.dcache.WriteLineReq_avg_mshr_miss_latency::total 30772.277228                       # average WriteLineReq mshr miss latency
system.cpu.dcache.LoadLockedReq_hits::.cpu.data          130                       # number of LoadLockedReq hits
system.cpu.dcache.LoadLockedReq_hits::total          130                       # number of LoadLockedReq hits
system.cpu.dcache.LoadLockedReq_misses::.cpu.data            1                       # number of LoadLockedReq misses
system.cpu.dcache.LoadLockedReq_misses::total            1                       # number of LoadLockedReq misses
system.cpu.dcache.LoadLockedReq_miss_latency::.cpu.data        86500                       # number of LoadLockedReq miss cycles
system.cpu.dcache.LoadLockedReq_miss_latency::total        86500                       # number of LoadLockedReq miss cycles
system.cpu.dcache.LoadLockedReq_accesses::.cpu.data          131                       # number of LoadLockedReq accesses(hits+misses)
system.cpu.dcache.LoadLockedReq_accesses::total          131                       # number of LoadLockedReq accesses(hits+misses)
system.cpu.dcache.LoadLockedReq_miss_rate::.cpu.data     0.007634                       # miss rate for LoadLockedReq accesses
system.cpu.dcache.LoadLockedReq_miss_rate::total     0.007634                       # miss rate for LoadLockedReq accesses
system.cpu.dcache.LoadLockedReq_avg_miss_latency::.cpu.data        86500                       # average LoadLockedReq miss latency
system.cpu.dcache.LoadLockedReq_avg_miss_latency::total        86500                       # average LoadLockedReq miss latency
system.cpu.dcache.LoadLockedReq_mshr_misses::.cpu.data            1                       # number of LoadLockedReq MSHR misses
system.cpu.dcache.LoadLockedReq_mshr_misses::total            1                       # number of LoadLockedReq MSHR misses
system.cpu.dcache.LoadLockedReq_mshr_miss_latency::.cpu.data        85500                       # number of LoadLockedReq MSHR miss cycles
system.cpu.dcache.LoadLockedReq_mshr_miss_latency::total        85500                       # number of LoadLockedReq MSHR miss cycles
system.cpu.dcache.LoadLockedReq_mshr_miss_rate::.cpu.data     0.007634                       # mshr miss rate for LoadLockedReq accesses
system.cpu.dcache.LoadLockedReq_mshr_miss_rate::total     0.007634                       # mshr miss rate for LoadLockedReq accesses
system.cpu.dcache.LoadLockedReq_avg_mshr_miss_latency::.cpu.data        85500                       # average LoadLockedReq mshr miss latency
system.cpu.dcache.LoadLockedReq_avg_mshr_miss_latency::total        85500                       # average LoadLockedReq mshr miss latency
system.cpu.dcache.StoreCondReq_hits::.cpu.data          100                       # number of StoreCondReq hits
system.cpu.dcache.StoreCondReq_hits::total          100                       # number of StoreCondReq hits
system.cpu.dcache.StoreCondReq_accesses::.cpu.data          100                       # number of StoreCondReq accesses(hits+misses)
system.cpu.dcache.StoreCondReq_accesses::total          100                       # number of StoreCondReq accesses(hits+misses)
system.cpu.dcache.power_state.pwrStateResidencyTicks::UNDEFINED  18058035500                       # Cumulative time (in ticks) in various power states
system.cpu.dcache.tags.tagsinuse          1020.167384                       # Cycle average of tags in use
system.cpu.dcache.tags.total_refs             4281173                       # Total number of references to valid blocks.
system.cpu.dcache.tags.sampled_refs            790061                       # Sample count of references to valid blocks.
system.cpu.dcache.tags.avg_refs              5.418788                       # Average number of references to valid blocks.
system.cpu.dcache.tags.warmup_cycle            176500                       # Cycle when the warmup percentage was hit.
system.cpu.dcache.tags.occ_blocks::.cpu.data  1020.167384                       # Average occupied blocks per requestor
system.cpu.dcache.tags.occ_percent::.cpu.data     0.996257                       # Average percentage of cache occupancy
system.cpu.dcache.tags.occ_percent::total     0.996257                       # Average percentage of cache occupancy
system.cpu.dcache.tags.occ_task_id_blocks::1024         1024                       # Occupied blocks per task id
system.cpu.dcache.tags.age_task_id_blocks_1024::0          385                       # Occupied blocks per task id
system.cpu.dcache.tags.age_task_id_blocks_1024::1          639                       # Occupied blocks per task id
system.cpu.dcache.tags.occ_task_id_percent::1024            1                       # Percentage of cache occupancy per task id
system.cpu.dcache.tags.tag_accesses          13764223                       # Number of tag accesses
system.cpu.dcache.tags.data_accesses         13764223                       # Number of data accesses
system.cpu.dcache.tags.power_state.pwrStateResidencyTicks::UNDEFINED  18058035500                       # Cumulative time (in ticks) in various power states
system.cpu.power_state.pwrStateResidencyTicks::ON  18058035500                       # Cumulative time (in ticks) in various power states

---------- End Simulation Statistics   ----------
