
---------- Begin Simulation Statistics ----------
final_tick                                 7437017500                       # Number of ticks from beginning of simulation (restored from checkpoints and never reset)
host_inst_rate                                 188834                       # Simulator instruction rate (inst/s)
host_mem_usage                                 897784                       # Number of bytes of host memory used
host_op_rate                                   189346                       # Simulator op (including micro ops) rate (op/s)
host_seconds                                    52.96                       # Real time elapsed on the host
host_tick_rate                              140435477                       # Simulator tick rate (ticks/s)
sim_freq                                 1000000000000                       # Frequency of simulated ticks
sim_insts                                    10000002                       # Number of instructions simulated
sim_ops                                      10027169                       # Number of ops (including micro ops) simulated
sim_seconds                                  0.007437                       # Number of seconds simulated
sim_ticks                                  7437017500                       # Number of ticks simulated
system.cpu.branchPred.BTBCorrect                    0                       # Number of correct BTB predictions (this stat may not work properly.
system.cpu.branchPred.BTBHitPct             99.928817                       # BTB Hit Percentage
system.cpu.branchPred.BTBHits                 3009806                       # Number of BTB hits
system.cpu.branchPred.BTBLookups              3011950                       # Number of BTB lookups
system.cpu.branchPred.RASInCorrect                 12                       # Number of incorrect RAS predictions.
system.cpu.branchPred.condIncorrect             22749                       # Number of conditional branches incorrect
system.cpu.branchPred.condPredicted           3042197                       # Number of conditional branches predicted
system.cpu.branchPred.indirectHits               1711                       # Number of indirect target hits.
system.cpu.branchPred.indirectLookups            2560                       # Number of indirect predictor lookups.
system.cpu.branchPred.indirectMisses              849                       # Number of indirect misses.
system.cpu.branchPred.lookups                 3056792                       # Number of BP lookups
system.cpu.branchPred.usedRAS                    5757                       # Number of times the RAS was used to get a target.
system.cpu.branchPredindirectMispredicted          233                       # Number of mispredicted indirect branches.
system.cpu.cc_regfile_reads                   7999065                       # number of cc regfile reads
system.cpu.cc_regfile_writes                  8032890                       # number of cc regfile writes
system.cpu.commit.amos                              0                       # Number of atomic instructions committed
system.cpu.commit.branchMispredicts             22187                       # The number of times a branch was mispredicted
system.cpu.commit.branches                    2501415                       # Number of branches committed
system.cpu.commit.bw_lim_events                  7445                       # number cycles where commit BW limit reached
system.cpu.commit.commitNonSpecStalls             174                       # The number of times commit has been forced to stall to communicate backwards
system.cpu.commit.commitSquashedInsts          797458                       # The number of squashed insts skipped by commit
system.cpu.commit.committedInsts             10019633                       # Number of instructions committed
system.cpu.commit.committedOps               10046800                       # Number of ops (including micro ops) committed
system.cpu.commit.committed_per_cycle::samples     14679189                       # Number of insts commited each cycle
system.cpu.commit.committed_per_cycle::mean     0.684425                       # Number of insts commited each cycle
system.cpu.commit.committed_per_cycle::stdev     1.422795                       # Number of insts commited each cycle
system.cpu.commit.committed_per_cycle::underflows            0      0.00%      0.00% # Number of insts commited each cycle
system.cpu.commit.committed_per_cycle::0     11459858     78.07%     78.07% # Number of insts commited each cycle
system.cpu.commit.committed_per_cycle::1       717917      4.89%     82.96% # Number of insts commited each cycle
system.cpu.commit.committed_per_cycle::2       156130      1.06%     84.02% # Number of insts commited each cycle
system.cpu.commit.committed_per_cycle::3       435819      2.97%     86.99% # Number of insts commited each cycle
system.cpu.commit.committed_per_cycle::4      1875993     12.78%     99.77% # Number of insts commited each cycle
system.cpu.commit.committed_per_cycle::5        17365      0.12%     99.89% # Number of insts commited each cycle
system.cpu.commit.committed_per_cycle::6         1825      0.01%     99.90% # Number of insts commited each cycle
system.cpu.commit.committed_per_cycle::7         6837      0.05%     99.95% # Number of insts commited each cycle
system.cpu.commit.committed_per_cycle::8         7445      0.05%    100.00% # Number of insts commited each cycle
system.cpu.commit.committed_per_cycle::overflows            0      0.00%    100.00% # Number of insts commited each cycle
system.cpu.commit.committed_per_cycle::min_value            0                       # Number of insts commited each cycle
system.cpu.commit.committed_per_cycle::max_value            8                       # Number of insts commited each cycle
system.cpu.commit.committed_per_cycle::total     14679189                       # Number of insts commited each cycle
system.cpu.commit.fp_insts                          0                       # Number of committed floating point instructions.
system.cpu.commit.function_calls                 4620                       # Number of function calls committed.
system.cpu.commit.int_insts                   7546090                       # Number of committed integer instructions.
system.cpu.commit.loads                         35385                       # Number of loads committed
system.cpu.commit.membars                         138                       # Number of memory barriers committed
system.cpu.commit.op_class_0::No_OpClass            3      0.00%      0.00% # Class of committed instruction
system.cpu.commit.op_class_0::IntAlu          7555307     75.20%     75.20% # Class of committed instruction
system.cpu.commit.op_class_0::IntMult             384      0.00%     75.20% # Class of committed instruction
system.cpu.commit.op_class_0::IntDiv               94      0.00%     75.21% # Class of committed instruction
system.cpu.commit.op_class_0::FloatAdd              8      0.00%     75.21% # Class of committed instruction
system.cpu.commit.op_class_0::FloatCmp              0      0.00%     75.21% # Class of committed instruction
system.cpu.commit.op_class_0::FloatCvt              0      0.00%     75.21% # Class of committed instruction
system.cpu.commit.op_class_0::FloatMult             0      0.00%     75.21% # Class of committed instruction
system.cpu.commit.op_class_0::FloatMultAcc            0      0.00%     75.21% # Class of committed instruction
system.cpu.commit.op_class_0::FloatDiv              0      0.00%     75.21% # Class of committed instruction
system.cpu.commit.op_class_0::FloatMisc            32      0.00%     75.21% # Class of committed instruction
system.cpu.commit.op_class_0::FloatSqrt             0      0.00%     75.21% # Class of committed instruction
system.cpu.commit.op_class_0::SimdAdd              15      0.00%     75.21% # Class of committed instruction
system.cpu.commit.op_class_0::SimdAddAcc            0      0.00%     75.21% # Class of committed instruction
system.cpu.commit.op_class_0::SimdAlu              10      0.00%     75.21% # Class of committed instruction
system.cpu.commit.op_class_0::SimdCmp              12      0.00%     75.21% # Class of committed instruction
system.cpu.commit.op_class_0::SimdCvt               0      0.00%     75.21% # Class of committed instruction
system.cpu.commit.op_class_0::SimdMisc             72      0.00%     75.21% # Class of committed instruction
system.cpu.commit.op_class_0::SimdMult              0      0.00%     75.21% # Class of committed instruction
system.cpu.commit.op_class_0::SimdMultAcc            0      0.00%     75.21% # Class of committed instruction
system.cpu.commit.op_class_0::SimdShift             0      0.00%     75.21% # Class of committed instruction
system.cpu.commit.op_class_0::SimdShiftAcc            0      0.00%     75.21% # Class of committed instruction
system.cpu.commit.op_class_0::SimdDiv               0      0.00%     75.21% # Class of committed instruction
system.cpu.commit.op_class_0::SimdSqrt              0      0.00%     75.21% # Class of committed instruction
system.cpu.commit.op_class_0::SimdFloatAdd            0      0.00%     75.21% # Class of committed instruction
system.cpu.commit.op_class_0::SimdFloatAlu            0      0.00%     75.21% # Class of committed instruction
system.cpu.commit.op_class_0::SimdFloatCmp            0      0.00%     75.21% # Class of committed instruction
system.cpu.commit.op_class_0::SimdFloatCvt            0      0.00%     75.21% # Class of committed instruction
system.cpu.commit.op_class_0::SimdFloatDiv            0      0.00%     75.21% # Class of committed instruction
system.cpu.commit.op_class_0::SimdFloatMisc            0      0.00%     75.21% # Class of committed instruction
system.cpu.commit.op_class_0::SimdFloatMult            0      0.00%     75.21% # Class of committed instruction
system.cpu.commit.op_class_0::SimdFloatMultAcc            0      0.00%     75.21% # Class of committed instruction
system.cpu.commit.op_class_0::SimdFloatSqrt            0      0.00%     75.21% # Class of committed instruction
system.cpu.commit.op_class_0::SimdReduceAdd            0      0.00%     75.21% # Class of committed instruction
system.cpu.commit.op_class_0::SimdReduceAlu            0      0.00%     75.21% # Class of committed instruction
system.cpu.commit.op_class_0::SimdReduceCmp            0      0.00%     75.21% # Class of committed instruction
system.cpu.commit.op_class_0::SimdFloatReduceAdd            0      0.00%     75.21% # Class of committed instruction
system.cpu.commit.op_class_0::SimdFloatReduceCmp            0      0.00%     75.21% # Class of committed instruction
system.cpu.commit.op_class_0::SimdAes               0      0.00%     75.21% # Class of committed instruction
system.cpu.commit.op_class_0::SimdAesMix            0      0.00%     75.21% # Class of committed instruction
system.cpu.commit.op_class_0::SimdSha1Hash            0      0.00%     75.21% # Class of committed instruction
system.cpu.commit.op_class_0::SimdSha1Hash2            0      0.00%     75.21% # Class of committed instruction
system.cpu.commit.op_class_0::SimdSha256Hash            0      0.00%     75.21% # Class of committed instruction
system.cpu.commit.op_class_0::SimdSha256Hash2            0      0.00%     75.21% # Class of committed instruction
system.cpu.commit.op_class_0::SimdShaSigma2            0      0.00%     75.21% # Class of committed instruction
system.cpu.commit.op_class_0::SimdShaSigma3            0      0.00%     75.21% # Class of committed instruction
system.cpu.commit.op_class_0::SimdPredAlu            0      0.00%     75.21% # Class of committed instruction
system.cpu.commit.op_class_0::MemRead           35385      0.35%     75.56% # Class of committed instruction
system.cpu.commit.op_class_0::MemWrite        2455478     24.44%    100.00% # Class of committed instruction
system.cpu.commit.op_class_0::FloatMemRead            0      0.00%    100.00% # Class of committed instruction
system.cpu.commit.op_class_0::FloatMemWrite            0      0.00%    100.00% # Class of committed instruction
system.cpu.commit.op_class_0::IprAccess             0      0.00%    100.00% # Class of committed instruction
system.cpu.commit.op_class_0::InstPrefetch            0      0.00%    100.00% # Class of committed instruction
system.cpu.commit.op_class_0::total          10046800                       # Class of committed instruction
system.cpu.commit.refs                        2490863                       # Number of memory references committed
system.cpu.commit.swp_count                         0                       # Number of s/w prefetches committed
system.cpu.commit.vec_insts                      2101                       # Number of committed Vector instructions.
system.cpu.committedInsts                    10000002                       # Number of Instructions Simulated
system.cpu.committedOps                      10027169                       # Number of Ops (including micro ops) Simulated
system.cpu.cpi                               1.487403                       # CPI: Cycles Per Instruction
system.cpu.cpi_total                         1.487403                       # CPI: Total CPI of All Threads
system.cpu.decode.BlockedCycles              12648555                       # Number of cycles decode is blocked
system.cpu.decode.BranchMispred                   594                       # Number of times decode detected a branch misprediction
system.cpu.decode.BranchResolved              2787089                       # Number of times decode resolved a branch
system.cpu.decode.DecodedInsts               11374173                       # Number of instructions handled by decode
system.cpu.decode.IdleCycles                   478123                       # Number of cycles decode is idle
system.cpu.decode.RunCycles                   1078930                       # Number of cycles decode is running
system.cpu.decode.SquashCycles                  27008                       # Number of cycles decode is squashing
system.cpu.decode.SquashedInsts                  1991                       # Number of squashed instructions handled by decode
system.cpu.decode.UnblockCycles                556890                       # Number of cycles decode is unblocking
system.cpu.dtb.accesses                             0                       # DTB accesses
system.cpu.dtb.align_faults                         0                       # Number of TLB faults due to alignment restrictions
system.cpu.dtb.domain_faults                        0                       # Number of TLB faults due to domain restrictions
system.cpu.dtb.flush_entries                        0                       # Number of entries that have been flushed from TLB
system.cpu.dtb.flush_tlb                            0                       # Number of times complete TLB was flushed
system.cpu.dtb.flush_tlb_asid                       0                       # Number of times TLB was flushed by ASID
system.cpu.dtb.flush_tlb_mva                        0                       # Number of times TLB was flushed by MVA
system.cpu.dtb.flush_tlb_mva_asid                   0                       # Number of times TLB was flushed by MVA & ASID
system.cpu.dtb.hits                                 0                       # DTB hits
system.cpu.dtb.inst_accesses                        0                       # ITB inst accesses
system.cpu.dtb.inst_hits                            0                       # ITB inst hits
system.cpu.dtb.inst_misses                          0                       # ITB inst misses
system.cpu.dtb.misses                               0                       # DTB misses
system.cpu.dtb.perms_faults                         0                       # Number of TLB faults due to permissions restrictions
system.cpu.dtb.prefetch_faults                      0                       # Number of TLB faults due to prefetch
system.cpu.dtb.read_accesses                        0                       # DTB read accesses
system.cpu.dtb.read_hits                            0                       # DTB read hits
system.cpu.dtb.read_misses                          0                       # DTB read misses
system.cpu.dtb.stage2_mmu.stage2_tlb.accesses            0                       # DTB accesses
system.cpu.dtb.stage2_mmu.stage2_tlb.align_faults            0                       # Number of TLB faults due to alignment restrictions
system.cpu.dtb.stage2_mmu.stage2_tlb.domain_faults            0                       # Number of TLB faults due to domain restrictions
system.cpu.dtb.stage2_mmu.stage2_tlb.flush_entries            0                       # Number of entries that have been flushed from TLB
system.cpu.dtb.stage2_mmu.stage2_tlb.flush_tlb            0                       # Number of times complete TLB was flushed
system.cpu.dtb.stage2_mmu.stage2_tlb.flush_tlb_asid            0                       # Number of times TLB was flushed by ASID
system.cpu.dtb.stage2_mmu.stage2_tlb.flush_tlb_mva            0                       # Number of times TLB was flushed by MVA
system.cpu.dtb.stage2_mmu.stage2_tlb.flush_tlb_mva_asid            0                       # Number of times TLB was flushed by MVA & ASID
system.cpu.dtb.stage2_mmu.stage2_tlb.hits            0                       # DTB hits
system.cpu.dtb.stage2_mmu.stage2_tlb.inst_accesses            0                       # ITB inst accesses
system.cpu.dtb.stage2_mmu.stage2_tlb.inst_hits            0                       # ITB inst hits
system.cpu.dtb.stage2_mmu.stage2_tlb.inst_misses            0                       # ITB inst misses
system.cpu.dtb.stage2_mmu.stage2_tlb.misses            0                       # DTB misses
system.cpu.dtb.stage2_mmu.stage2_tlb.perms_faults            0                       # Number of TLB faults due to permissions restrictions
system.cpu.dtb.stage2_mmu.stage2_tlb.prefetch_faults            0                       # Number of TLB faults due to prefetch
system.cpu.dtb.stage2_mmu.stage2_tlb.read_accesses            0                       # DTB read accesses
system.cpu.dtb.stage2_mmu.stage2_tlb.read_hits            0                       # DTB read hits
system.cpu.dtb.stage2_mmu.stage2_tlb.read_misses            0                       # DTB read misses
system.cpu.dtb.stage2_mmu.stage2_tlb.walker.walkRequestOrigin_Requested::Data            0                       # Table walker requests started/completed, data/inst
system.cpu.dtb.stage2_mmu.stage2_tlb.walker.walkRequestOrigin_Requested::Inst            0                       # Table walker requests started/completed, data/inst
system.cpu.dtb.stage2_mmu.stage2_tlb.walker.walkRequestOrigin_Requested::total            0                       # Table walker requests started/completed, data/inst
system.cpu.dtb.stage2_mmu.stage2_tlb.walker.walkRequestOrigin_Completed::Data            0                       # Table walker requests started/completed, data/inst
system.cpu.dtb.stage2_mmu.stage2_tlb.walker.walkRequestOrigin_Completed::Inst            0                       # Table walker requests started/completed, data/inst
system.cpu.dtb.stage2_mmu.stage2_tlb.walker.walkRequestOrigin_Completed::total            0                       # Table walker requests started/completed, data/inst
system.cpu.dtb.stage2_mmu.stage2_tlb.walker.walkRequestOrigin::total            0                       # Table walker requests started/completed, data/inst
system.cpu.dtb.stage2_mmu.stage2_tlb.walker.walks            0                       # Table walker walks requested
system.cpu.dtb.stage2_mmu.stage2_tlb.write_accesses            0                       # DTB write accesses
system.cpu.dtb.stage2_mmu.stage2_tlb.write_hits            0                       # DTB write hits
system.cpu.dtb.stage2_mmu.stage2_tlb.write_misses            0                       # DTB write misses
system.cpu.dtb.walker.walkRequestOrigin_Requested::Data            0                       # Table walker requests started/completed, data/inst
system.cpu.dtb.walker.walkRequestOrigin_Requested::Inst            0                       # Table walker requests started/completed, data/inst
system.cpu.dtb.walker.walkRequestOrigin_Requested::total            0                       # Table walker requests started/completed, data/inst
system.cpu.dtb.walker.walkRequestOrigin_Completed::Data            0                       # Table walker requests started/completed, data/inst
system.cpu.dtb.walker.walkRequestOrigin_Completed::Inst            0                       # Table walker requests started/completed, data/inst
system.cpu.dtb.walker.walkRequestOrigin_Completed::total            0                       # Table walker requests started/completed, data/inst
system.cpu.dtb.walker.walkRequestOrigin::total            0                       # Table walker requests started/completed, data/inst
system.cpu.dtb.walker.walks                         0                       # Table walker walks requested
system.cpu.dtb.write_accesses                       0                       # DTB write accesses
system.cpu.dtb.write_hits                           0                       # DTB write hits
system.cpu.dtb.write_misses                         0                       # DTB write misses
system.cpu.fetch.Branches                     3056792                       # Number of branches that fetch encountered
system.cpu.fetch.CacheLines                     32437                       # Number of cache lines fetched
system.cpu.fetch.Cycles                      14588805                       # Number of cycles fetch has run and was not squashing or blocked
system.cpu.fetch.IcacheSquashes                  1586                       # Number of outstanding Icache misses that were squashed
system.cpu.fetch.Insts                       12243093                       # Number of instructions fetch has processed
system.cpu.fetch.MiscStallCycles                   23                       # Number of cycles fetch has spent waiting on interrupts, or bad addresses, or out of MSHRs
system.cpu.fetch.PendingTrapStallCycles           132                       # Number of stall cycles due to pending traps
system.cpu.fetch.SquashCycles                   55184                       # Number of cycles fetch has spent squashing
system.cpu.fetch.branchRate                  0.205512                       # Number of branch fetches per cycle
system.cpu.fetch.icacheStallCycles             172954                       # Number of cycles fetch is stalled on an Icache miss
system.cpu.fetch.predictedBranches            3017274                       # Number of branches that fetch has predicted taken
system.cpu.fetch.rate                        0.823118                       # Number of inst fetches per cycle
system.cpu.fetch.rateDist::samples           14789506                       # Number of instructions fetched each cycle (Total)
system.cpu.fetch.rateDist::mean              0.830068                       # Number of instructions fetched each cycle (Total)
system.cpu.fetch.rateDist::stdev             1.646864                       # Number of instructions fetched each cycle (Total)
system.cpu.fetch.rateDist::underflows               0      0.00%      0.00% # Number of instructions fetched each cycle (Total)
system.cpu.fetch.rateDist::0                 11753250     79.47%     79.47% # Number of instructions fetched each cycle (Total)
system.cpu.fetch.rateDist::1                     4542      0.03%     79.50% # Number of instructions fetched each cycle (Total)
system.cpu.fetch.rateDist::2                     4816      0.03%     79.53% # Number of instructions fetched each cycle (Total)
system.cpu.fetch.rateDist::3                     5968      0.04%     79.57% # Number of instructions fetched each cycle (Total)
system.cpu.fetch.rateDist::4                  2974894     20.11%     99.69% # Number of instructions fetched each cycle (Total)
system.cpu.fetch.rateDist::5                     4942      0.03%     99.72% # Number of instructions fetched each cycle (Total)
system.cpu.fetch.rateDist::6                     2272      0.02%     99.74% # Number of instructions fetched each cycle (Total)
system.cpu.fetch.rateDist::7                     4272      0.03%     99.77% # Number of instructions fetched each cycle (Total)
system.cpu.fetch.rateDist::8                    34550      0.23%    100.00% # Number of instructions fetched each cycle (Total)
system.cpu.fetch.rateDist::overflows                0      0.00%    100.00% # Number of instructions fetched each cycle (Total)
system.cpu.fetch.rateDist::min_value                0                       # Number of instructions fetched each cycle (Total)
system.cpu.fetch.rateDist::max_value                8                       # Number of instructions fetched each cycle (Total)
system.cpu.fetch.rateDist::total             14789506                       # Number of instructions fetched each cycle (Total)
system.cpu.idleCycles                           84530                       # Total number of cycles that the CPU has spent unscheduled due to idling
system.cpu.iew.branchMispredicts                22856                       # Number of branch mispredicts detected at execute
system.cpu.iew.exec_branches                  2685778                       # Number of branches executed
system.cpu.iew.exec_nop                         20741                       # number of nop insts executed
system.cpu.iew.exec_rate                     0.728166                       # Inst execution rate
system.cpu.iew.exec_refs                      2700425                       # number of memory reference insts executed
system.cpu.iew.exec_stores                    2660644                       # Number of stores executed
system.cpu.iew.exec_swp                             0                       # number of swp insts executed
system.cpu.iew.iewBlockCycles                   83824                       # Number of cycles IEW is blocking
system.cpu.iew.iewDispLoadInsts                 40460                       # Number of dispatched load instructions
system.cpu.iew.iewDispNonSpecInsts                203                       # Number of dispatched non-speculative instructions
system.cpu.iew.iewDispSquashedInsts             28203                       # Number of squashed instructions skipped by dispatch
system.cpu.iew.iewDispStoreInsts              2684468                       # Number of dispatched store instructions
system.cpu.iew.iewDispatchedInsts            10984442                       # Number of instructions dispatched to IQ
system.cpu.iew.iewExecLoadInsts                 39781                       # Number of load instructions executed
system.cpu.iew.iewExecSquashedInsts             41682                       # Number of squashed instructions skipped in execute
system.cpu.iew.iewExecutedInsts              10830771                       # Number of executed instructions
system.cpu.iew.iewIQFullEvents                     13                       # Number of times the IQ has become full, causing a stall
system.cpu.iew.iewIdleCycles                        0                       # Number of cycles IEW is idle
system.cpu.iew.iewLSQFullEvents                   411                       # Number of times the LSQ has become full, causing a stall
system.cpu.iew.iewSquashCycles                  27008                       # Number of cycles IEW is squashing
system.cpu.iew.iewUnblockCycles                   422                       # Number of cycles IEW is unblocking
system.cpu.iew.lsq.thread0.blockedLoads             0                       # Number of blocked loads due to partial load-store forwarding
system.cpu.iew.lsq.thread0.cacheBlocked             0                       # Number of times an access to memory failed due to the cache being blocked
system.cpu.iew.lsq.thread0.forwLoads             2413                       # Number of loads that had data forwarded from stores
system.cpu.iew.lsq.thread0.ignoredResponses            5                       # Number of memory responses ignored because the instruction is squashed
system.cpu.iew.lsq.thread0.invAddrLoads             0                       # Number of loads ignored due to an invalid address
system.cpu.iew.lsq.thread0.invAddrSwpfs             0                       # Number of software prefetches ignored due to an invalid address
system.cpu.iew.lsq.thread0.memOrderViolation           38                       # Number of memory ordering violations
system.cpu.iew.lsq.thread0.rescheduledLoads          845                       # Number of loads that were rescheduled
system.cpu.iew.lsq.thread0.squashedLoads         5075                       # Number of loads squashed
system.cpu.iew.lsq.thread0.squashedStores       228986                       # Number of stores squashed
system.cpu.iew.memOrderViolationEvents             38                       # Number of memory order violations
system.cpu.iew.predictedNotTakenIncorrect         1806                       # Number of branches that were predicted not taken incorrectly
system.cpu.iew.predictedTakenIncorrect          21050                       # Number of branches that were predicted taken incorrectly
system.cpu.iew.wb_consumers                  14917880                       # num instructions consuming a value
system.cpu.iew.wb_count                      10709385                       # cumulative count of insts written-back
system.cpu.iew.wb_fanout                     0.363929                       # average fanout of values written-back
system.cpu.iew.wb_producers                   5429052                       # num instructions producing a value
system.cpu.iew.wb_rate                       0.720005                       # insts written-back per cycle
system.cpu.iew.wb_sent                       10828917                       # cumulative count of insts sent to commit
system.cpu.int_regfile_reads                 13520234                       # number of integer regfile reads
system.cpu.int_regfile_writes                 5493036                       # number of integer regfile writes
system.cpu.ipc                               0.672313                       # IPC: Instructions Per Cycle
system.cpu.ipc_total                         0.672313                       # IPC: Total IPC of All Threads
system.cpu.iq.FU_type_0::No_OpClass                26      0.00%      0.00% # Type of FU issued
system.cpu.iq.FU_type_0::IntAlu               8159496     75.05%     75.05% # Type of FU issued
system.cpu.iq.FU_type_0::IntMult                  385      0.00%     75.05% # Type of FU issued
system.cpu.iq.FU_type_0::IntDiv                    96      0.00%     75.05% # Type of FU issued
system.cpu.iq.FU_type_0::FloatAdd                  11      0.00%     75.05% # Type of FU issued
system.cpu.iq.FU_type_0::FloatCmp                   0      0.00%     75.05% # Type of FU issued
system.cpu.iq.FU_type_0::FloatCvt                   0      0.00%     75.05% # Type of FU issued
system.cpu.iq.FU_type_0::FloatMult                  0      0.00%     75.05% # Type of FU issued
system.cpu.iq.FU_type_0::FloatMultAcc               0      0.00%     75.05% # Type of FU issued
system.cpu.iq.FU_type_0::FloatDiv                   0      0.00%     75.05% # Type of FU issued
system.cpu.iq.FU_type_0::FloatMisc                 47      0.00%     75.05% # Type of FU issued
system.cpu.iq.FU_type_0::FloatSqrt                  0      0.00%     75.05% # Type of FU issued
system.cpu.iq.FU_type_0::SimdAdd                   21      0.00%     75.05% # Type of FU issued
system.cpu.iq.FU_type_0::SimdAddAcc                 0      0.00%     75.05% # Type of FU issued
system.cpu.iq.FU_type_0::SimdAlu                   14      0.00%     75.05% # Type of FU issued
system.cpu.iq.FU_type_0::SimdCmp                   16      0.00%     75.05% # Type of FU issued
system.cpu.iq.FU_type_0::SimdCvt                    0      0.00%     75.05% # Type of FU issued
system.cpu.iq.FU_type_0::SimdMisc                  80      0.00%     75.05% # Type of FU issued
system.cpu.iq.FU_type_0::SimdMult                   0      0.00%     75.05% # Type of FU issued
system.cpu.iq.FU_type_0::SimdMultAcc                0      0.00%     75.05% # Type of FU issued
system.cpu.iq.FU_type_0::SimdShift                  0      0.00%     75.05% # Type of FU issued
system.cpu.iq.FU_type_0::SimdShiftAcc               0      0.00%     75.05% # Type of FU issued
system.cpu.iq.FU_type_0::SimdDiv                    0      0.00%     75.05% # Type of FU issued
system.cpu.iq.FU_type_0::SimdSqrt                   0      0.00%     75.05% # Type of FU issued
system.cpu.iq.FU_type_0::SimdFloatAdd               0      0.00%     75.05% # Type of FU issued
system.cpu.iq.FU_type_0::SimdFloatAlu               0      0.00%     75.05% # Type of FU issued
system.cpu.iq.FU_type_0::SimdFloatCmp               0      0.00%     75.05% # Type of FU issued
system.cpu.iq.FU_type_0::SimdFloatCvt               0      0.00%     75.05% # Type of FU issued
system.cpu.iq.FU_type_0::SimdFloatDiv               0      0.00%     75.05% # Type of FU issued
system.cpu.iq.FU_type_0::SimdFloatMisc              0      0.00%     75.05% # Type of FU issued
system.cpu.iq.FU_type_0::SimdFloatMult              0      0.00%     75.05% # Type of FU issued
system.cpu.iq.FU_type_0::SimdFloatMultAcc            0      0.00%     75.05% # Type of FU issued
system.cpu.iq.FU_type_0::SimdFloatSqrt              0      0.00%     75.05% # Type of FU issued
system.cpu.iq.FU_type_0::SimdReduceAdd              0      0.00%     75.05% # Type of FU issued
system.cpu.iq.FU_type_0::SimdReduceAlu              0      0.00%     75.05% # Type of FU issued
system.cpu.iq.FU_type_0::SimdReduceCmp              0      0.00%     75.05% # Type of FU issued
system.cpu.iq.FU_type_0::SimdFloatReduceAdd            0      0.00%     75.05% # Type of FU issued
system.cpu.iq.FU_type_0::SimdFloatReduceCmp            0      0.00%     75.05% # Type of FU issued
system.cpu.iq.FU_type_0::SimdAes                    0      0.00%     75.05% # Type of FU issued
system.cpu.iq.FU_type_0::SimdAesMix                 0      0.00%     75.05% # Type of FU issued
system.cpu.iq.FU_type_0::SimdSha1Hash               0      0.00%     75.05% # Type of FU issued
system.cpu.iq.FU_type_0::SimdSha1Hash2              0      0.00%     75.05% # Type of FU issued
system.cpu.iq.FU_type_0::SimdSha256Hash             0      0.00%     75.05% # Type of FU issued
system.cpu.iq.FU_type_0::SimdSha256Hash2            0      0.00%     75.05% # Type of FU issued
system.cpu.iq.FU_type_0::SimdShaSigma2              0      0.00%     75.05% # Type of FU issued
system.cpu.iq.FU_type_0::SimdShaSigma3              0      0.00%     75.05% # Type of FU issued
system.cpu.iq.FU_type_0::SimdPredAlu                0      0.00%     75.05% # Type of FU issued
system.cpu.iq.FU_type_0::MemRead                40432      0.37%     75.43% # Type of FU issued
system.cpu.iq.FU_type_0::MemWrite             2671833     24.57%    100.00% # Type of FU issued
system.cpu.iq.FU_type_0::FloatMemRead               0      0.00%    100.00% # Type of FU issued
system.cpu.iq.FU_type_0::FloatMemWrite              0      0.00%    100.00% # Type of FU issued
system.cpu.iq.FU_type_0::IprAccess                  0      0.00%    100.00% # Type of FU issued
system.cpu.iq.FU_type_0::InstPrefetch               0      0.00%    100.00% # Type of FU issued
system.cpu.iq.FU_type_0::total               10872457                       # Type of FU issued
system.cpu.iq.fp_alu_accesses                       0                       # Number of floating point alu accesses
system.cpu.iq.fp_inst_queue_reads                   0                       # Number of floating instruction queue reads
system.cpu.iq.fp_inst_queue_wakeup_accesses            0                       # Number of floating instruction queue wakeup accesses
system.cpu.iq.fp_inst_queue_writes                  0                       # Number of floating instruction queue writes
system.cpu.iq.fu_busy_cnt                        3085                       # FU busy when requested
system.cpu.iq.fu_busy_rate                   0.000284                       # FU busy rate (busy events/executed inst)
system.cpu.iq.fu_full::No_OpClass                   0      0.00%      0.00% # attempts to use FU when none available
system.cpu.iq.fu_full::IntAlu                     801     25.96%     25.96% # attempts to use FU when none available
system.cpu.iq.fu_full::IntMult                      1      0.03%     26.00% # attempts to use FU when none available
system.cpu.iq.fu_full::IntDiv                       0      0.00%     26.00% # attempts to use FU when none available
system.cpu.iq.fu_full::FloatAdd                     0      0.00%     26.00% # attempts to use FU when none available
system.cpu.iq.fu_full::FloatCmp                     0      0.00%     26.00% # attempts to use FU when none available
system.cpu.iq.fu_full::FloatCvt                     0      0.00%     26.00% # attempts to use FU when none available
system.cpu.iq.fu_full::FloatMult                    0      0.00%     26.00% # attempts to use FU when none available
system.cpu.iq.fu_full::FloatMultAcc                 0      0.00%     26.00% # attempts to use FU when none available
system.cpu.iq.fu_full::FloatDiv                     0      0.00%     26.00% # attempts to use FU when none available
system.cpu.iq.fu_full::FloatMisc                    0      0.00%     26.00% # attempts to use FU when none available
system.cpu.iq.fu_full::FloatSqrt                    0      0.00%     26.00% # attempts to use FU when none available
system.cpu.iq.fu_full::SimdAdd                      0      0.00%     26.00% # attempts to use FU when none available
system.cpu.iq.fu_full::SimdAddAcc                   0      0.00%     26.00% # attempts to use FU when none available
system.cpu.iq.fu_full::SimdAlu                      1      0.03%     26.03% # attempts to use FU when none available
system.cpu.iq.fu_full::SimdCmp                      2      0.06%     26.09% # attempts to use FU when none available
system.cpu.iq.fu_full::SimdCvt                      0      0.00%     26.09% # attempts to use FU when none available
system.cpu.iq.fu_full::SimdMisc                     0      0.00%     26.09% # attempts to use FU when none available
system.cpu.iq.fu_full::SimdMult                     0      0.00%     26.09% # attempts to use FU when none available
system.cpu.iq.fu_full::SimdMultAcc                  0      0.00%     26.09% # attempts to use FU when none available
system.cpu.iq.fu_full::SimdShift                    0      0.00%     26.09% # attempts to use FU when none available
system.cpu.iq.fu_full::SimdShiftAcc                 0      0.00%     26.09% # attempts to use FU when none available
system.cpu.iq.fu_full::SimdDiv                      0      0.00%     26.09% # attempts to use FU when none available
system.cpu.iq.fu_full::SimdSqrt                     0      0.00%     26.09% # attempts to use FU when none available
system.cpu.iq.fu_full::SimdFloatAdd                 0      0.00%     26.09% # attempts to use FU when none available
system.cpu.iq.fu_full::SimdFloatAlu                 0      0.00%     26.09% # attempts to use FU when none available
system.cpu.iq.fu_full::SimdFloatCmp                 0      0.00%     26.09% # attempts to use FU when none available
system.cpu.iq.fu_full::SimdFloatCvt                 0      0.00%     26.09% # attempts to use FU when none available
system.cpu.iq.fu_full::SimdFloatDiv                 0      0.00%     26.09% # attempts to use FU when none available
system.cpu.iq.fu_full::SimdFloatMisc                0      0.00%     26.09% # attempts to use FU when none available
system.cpu.iq.fu_full::SimdFloatMult                0      0.00%     26.09% # attempts to use FU when none available
system.cpu.iq.fu_full::SimdFloatMultAcc             0      0.00%     26.09% # attempts to use FU when none available
system.cpu.iq.fu_full::SimdFloatSqrt                0      0.00%     26.09% # attempts to use FU when none available
system.cpu.iq.fu_full::SimdReduceAdd                0      0.00%     26.09% # attempts to use FU when none available
system.cpu.iq.fu_full::SimdReduceAlu                0      0.00%     26.09% # attempts to use FU when none available
system.cpu.iq.fu_full::SimdReduceCmp                0      0.00%     26.09% # attempts to use FU when none available
system.cpu.iq.fu_full::SimdFloatReduceAdd            0      0.00%     26.09% # attempts to use FU when none available
system.cpu.iq.fu_full::SimdFloatReduceCmp            0      0.00%     26.09% # attempts to use FU when none available
system.cpu.iq.fu_full::SimdAes                      0      0.00%     26.09% # attempts to use FU when none available
system.cpu.iq.fu_full::SimdAesMix                   0      0.00%     26.09% # attempts to use FU when none available
system.cpu.iq.fu_full::SimdSha1Hash                 0      0.00%     26.09% # attempts to use FU when none available
system.cpu.iq.fu_full::SimdSha1Hash2                0      0.00%     26.09% # attempts to use FU when none available
system.cpu.iq.fu_full::SimdSha256Hash               0      0.00%     26.09% # attempts to use FU when none available
system.cpu.iq.fu_full::SimdSha256Hash2              0      0.00%     26.09% # attempts to use FU when none available
system.cpu.iq.fu_full::SimdShaSigma2                0      0.00%     26.09% # attempts to use FU when none available
system.cpu.iq.fu_full::SimdShaSigma3                0      0.00%     26.09% # attempts to use FU when none available
system.cpu.iq.fu_full::SimdPredAlu                  0      0.00%     26.09% # attempts to use FU when none available
system.cpu.iq.fu_full::MemRead                   1288     41.75%     67.84% # attempts to use FU when none available
system.cpu.iq.fu_full::MemWrite                   992     32.16%    100.00% # attempts to use FU when none available
system.cpu.iq.fu_full::FloatMemRead                 0      0.00%    100.00% # attempts to use FU when none available
system.cpu.iq.fu_full::FloatMemWrite                0      0.00%    100.00% # attempts to use FU when none available
system.cpu.iq.fu_full::IprAccess                    0      0.00%    100.00% # attempts to use FU when none available
system.cpu.iq.fu_full::InstPrefetch                 0      0.00%    100.00% # attempts to use FU when none available
system.cpu.iq.int_alu_accesses               10872864                       # Number of integer alu accesses
system.cpu.iq.int_inst_queue_reads           36532577                       # Number of integer instruction queue reads
system.cpu.iq.int_inst_queue_wakeup_accesses     10707108                       # Number of integer instruction queue wakeup accesses
system.cpu.iq.int_inst_queue_writes          11896928                       # Number of integer instruction queue writes
system.cpu.iq.iqInstsAdded                   10963498                       # Number of instructions added to the IQ (excludes non-spec)
system.cpu.iq.iqInstsIssued                  10872457                       # Number of instructions issued
system.cpu.iq.iqNonSpecInstsAdded                 203                       # Number of non-speculative instructions added to the IQ
system.cpu.iq.iqSquashedInstsExamined          936514                       # Number of squashed instructions iterated over during squash; mainly for profiling
system.cpu.iq.iqSquashedInstsIssued               327                       # Number of squashed instructions issued
system.cpu.iq.iqSquashedNonSpecRemoved             29                       # Number of squashed non-spec instructions that were removed
system.cpu.iq.iqSquashedOperandsExamined       474635                       # Number of squashed operands that are examined and possibly removed from graph
system.cpu.iq.issued_per_cycle::samples      14789506                       # Number of insts issued each cycle
system.cpu.iq.issued_per_cycle::mean         0.735147                       # Number of insts issued each cycle
system.cpu.iq.issued_per_cycle::stdev        1.422440                       # Number of insts issued each cycle
system.cpu.iq.issued_per_cycle::underflows            0      0.00%      0.00% # Number of insts issued each cycle
system.cpu.iq.issued_per_cycle::0            11299257     76.40%     76.40% # Number of insts issued each cycle
system.cpu.iq.issued_per_cycle::1              441425      2.98%     79.39% # Number of insts issued each cycle
system.cpu.iq.issued_per_cycle::2              481756      3.26%     82.64% # Number of insts issued each cycle
system.cpu.iq.issued_per_cycle::3              825988      5.58%     88.23% # Number of insts issued each cycle
system.cpu.iq.issued_per_cycle::4             1726595     11.67%     99.90% # Number of insts issued each cycle
system.cpu.iq.issued_per_cycle::5                7254      0.05%     99.95% # Number of insts issued each cycle
system.cpu.iq.issued_per_cycle::6                4560      0.03%     99.98% # Number of insts issued each cycle
system.cpu.iq.issued_per_cycle::7                1822      0.01%     99.99% # Number of insts issued each cycle
system.cpu.iq.issued_per_cycle::8                 849      0.01%    100.00% # Number of insts issued each cycle
system.cpu.iq.issued_per_cycle::overflows            0      0.00%    100.00% # Number of insts issued each cycle
system.cpu.iq.issued_per_cycle::min_value            0                       # Number of insts issued each cycle
system.cpu.iq.issued_per_cycle::max_value            8                       # Number of insts issued each cycle
system.cpu.iq.issued_per_cycle::total        14789506                       # Number of insts issued each cycle
system.cpu.iq.rate                           0.730969                       # Inst issue rate
system.cpu.iq.vec_alu_accesses                   2652                       # Number of vector alu accesses
system.cpu.iq.vec_inst_queue_reads               5251                       # Number of vector instruction queue reads
system.cpu.iq.vec_inst_queue_wakeup_accesses         2277                       # Number of vector instruction queue wakeup accesses
system.cpu.iq.vec_inst_queue_writes              3323                       # Number of vector instruction queue writes
system.cpu.itb.accesses                             0                       # DTB accesses
system.cpu.itb.align_faults                         0                       # Number of TLB faults due to alignment restrictions
system.cpu.itb.domain_faults                        0                       # Number of TLB faults due to domain restrictions
system.cpu.itb.flush_entries                        0                       # Number of entries that have been flushed from TLB
system.cpu.itb.flush_tlb                            0                       # Number of times complete TLB was flushed
system.cpu.itb.flush_tlb_asid                       0                       # Number of times TLB was flushed by ASID
system.cpu.itb.flush_tlb_mva                        0                       # Number of times TLB was flushed by MVA
system.cpu.itb.flush_tlb_mva_asid                   0                       # Number of times TLB was flushed by MVA & ASID
system.cpu.itb.hits                                 0                       # DTB hits
system.cpu.itb.inst_accesses                        0                       # ITB inst accesses
system.cpu.itb.inst_hits                            0                       # ITB inst hits
system.cpu.itb.inst_misses                          0                       # ITB inst misses
system.cpu.itb.misses                               0                       # DTB misses
system.cpu.itb.perms_faults                         0                       # Number of TLB faults due to permissions restrictions
system.cpu.itb.prefetch_faults                      0                       # Number of TLB faults due to prefetch
system.cpu.itb.read_accesses                        0                       # DTB read accesses
system.cpu.itb.read_hits                            0                       # DTB read hits
system.cpu.itb.read_misses                          0                       # DTB read misses
system.cpu.itb.stage2_mmu.stage2_tlb.accesses            0                       # DTB accesses
system.cpu.itb.stage2_mmu.stage2_tlb.align_faults            0                       # Number of TLB faults due to alignment restrictions
system.cpu.itb.stage2_mmu.stage2_tlb.domain_faults            0                       # Number of TLB faults due to domain restrictions
system.cpu.itb.stage2_mmu.stage2_tlb.flush_entries            0                       # Number of entries that have been flushed from TLB
system.cpu.itb.stage2_mmu.stage2_tlb.flush_tlb            0                       # Number of times complete TLB was flushed
system.cpu.itb.stage2_mmu.stage2_tlb.flush_tlb_asid            0                       # Number of times TLB was flushed by ASID
system.cpu.itb.stage2_mmu.stage2_tlb.flush_tlb_mva            0                       # Number of times TLB was flushed by MVA
system.cpu.itb.stage2_mmu.stage2_tlb.flush_tlb_mva_asid            0                       # Number of times TLB was flushed by MVA & ASID
system.cpu.itb.stage2_mmu.stage2_tlb.hits            0                       # DTB hits
system.cpu.itb.stage2_mmu.stage2_tlb.inst_accesses            0                       # ITB inst accesses
system.cpu.itb.stage2_mmu.stage2_tlb.inst_hits            0                       # ITB inst hits
system.cpu.itb.stage2_mmu.stage2_tlb.inst_misses            0                       # ITB inst misses
system.cpu.itb.stage2_mmu.stage2_tlb.misses            0                       # DTB misses
system.cpu.itb.stage2_mmu.stage2_tlb.perms_faults            0                       # Number of TLB faults due to permissions restrictions
system.cpu.itb.stage2_mmu.stage2_tlb.prefetch_faults            0                       # Number of TLB faults due to prefetch
system.cpu.itb.stage2_mmu.stage2_tlb.read_accesses            0                       # DTB read accesses
system.cpu.itb.stage2_mmu.stage2_tlb.read_hits            0                       # DTB read hits
system.cpu.itb.stage2_mmu.stage2_tlb.read_misses            0                       # DTB read misses
system.cpu.itb.stage2_mmu.stage2_tlb.walker.walkRequestOrigin_Requested::Data            0                       # Table walker requests started/completed, data/inst
system.cpu.itb.stage2_mmu.stage2_tlb.walker.walkRequestOrigin_Requested::Inst            0                       # Table walker requests started/completed, data/inst
system.cpu.itb.stage2_mmu.stage2_tlb.walker.walkRequestOrigin_Requested::total            0                       # Table walker requests started/completed, data/inst
system.cpu.itb.stage2_mmu.stage2_tlb.walker.walkRequestOrigin_Completed::Data            0                       # Table walker requests started/completed, data/inst
system.cpu.itb.stage2_mmu.stage2_tlb.walker.walkRequestOrigin_Completed::Inst            0                       # Table walker requests started/completed, data/inst
system.cpu.itb.stage2_mmu.stage2_tlb.walker.walkRequestOrigin_Completed::total            0                       # Table walker requests started/completed, data/inst
system.cpu.itb.stage2_mmu.stage2_tlb.walker.walkRequestOrigin::total            0                       # Table walker requests started/completed, data/inst
system.cpu.itb.stage2_mmu.stage2_tlb.walker.walks            0                       # Table walker walks requested
system.cpu.itb.stage2_mmu.stage2_tlb.write_accesses            0                       # DTB write accesses
system.cpu.itb.stage2_mmu.stage2_tlb.write_hits            0                       # DTB write hits
system.cpu.itb.stage2_mmu.stage2_tlb.write_misses            0                       # DTB write misses
system.cpu.itb.walker.walkRequestOrigin_Requested::Data            0                       # Table walker requests started/completed, data/inst
system.cpu.itb.walker.walkRequestOrigin_Requested::Inst            0                       # Table walker requests started/completed, data/inst
system.cpu.itb.walker.walkRequestOrigin_Requested::total            0                       # Table walker requests started/completed, data/inst
system.cpu.itb.walker.walkRequestOrigin_Completed::Data            0                       # Table walker requests started/completed, data/inst
system.cpu.itb.walker.walkRequestOrigin_Completed::Inst            0                       # Table walker requests started/completed, data/inst
system.cpu.itb.walker.walkRequestOrigin_Completed::total            0                       # Table walker requests started/completed, data/inst
system.cpu.itb.walker.walkRequestOrigin::total            0                       # Table walker requests started/completed, data/inst
system.cpu.itb.walker.walks                         0                       # Table walker walks requested
system.cpu.itb.write_accesses                       0                       # DTB write accesses
system.cpu.itb.write_hits                           0                       # DTB write hits
system.cpu.itb.write_misses                         0                       # DTB write misses
system.cpu.memDep0.conflictingLoads              1955                       # Number of conflicting loads.
system.cpu.memDep0.conflictingStores              855                       # Number of conflicting stores.
system.cpu.memDep0.insertedLoads                40460                       # Number of loads inserted to the mem dependence unit.
system.cpu.memDep0.insertedStores             2684468                       # Number of stores inserted to the mem dependence unit.
system.cpu.misc_regfile_reads                 8006216                       # number of misc regfile reads
system.cpu.misc_regfile_writes                    561                       # number of misc regfile writes
system.cpu.numCycles                         14874036                       # number of cpu cycles simulated
system.cpu.numWorkItemsCompleted                    0                       # number of work items this cpu completed
system.cpu.numWorkItemsStarted                      0                       # number of work items this cpu started
system.cpu.rename.BlockCycles                   84518                       # Number of cycles rename is blocking
system.cpu.rename.CommittedMaps              12530631                       # Number of HB maps that are committed
system.cpu.rename.IQFullEvents                     50                       # Number of times rename has blocked due to IQ full
system.cpu.rename.IdleCycles                   772315                       # Number of cycles rename is idle
system.cpu.rename.LQFullEvents                   1047                       # Number of times rename has blocked due to LQ full
system.cpu.rename.ROBFullEvents                     8                       # Number of times rename has blocked due to ROB full
system.cpu.rename.RenameLookups              22107478                       # Number of register rename lookups that rename has made
system.cpu.rename.RenamedInsts               11130647                       # Number of instructions processed by rename
system.cpu.rename.RenamedOperands            13879043                       # Number of destination operands rename has renamed
system.cpu.rename.RunCycles                   1332150                       # Number of cycles rename is running
system.cpu.rename.SQFullEvents               12559844                       # Number of times rename has blocked due to SQ full
system.cpu.rename.SquashCycles                  27008                       # Number of cycles rename is squashing
system.cpu.rename.UnblockCycles              12555310                       # Number of cycles rename is unblocking
system.cpu.rename.UndoneMaps                  1348377                       # Number of HB maps that are undone due to squashing
system.cpu.rename.int_rename_lookups         13847041                       # Number of integer rename lookups
system.cpu.rename.serializeStallCycles          18205                       # count of cycles rename stalled for serializing inst
system.cpu.rename.serializingInsts                817                       # count of serializing insts renamed
system.cpu.rename.skidInsts                   4397744                       # count of insts added to the skid buffer
system.cpu.rename.tempSerializingInsts            200                       # count of temporary serializing insts renamed
system.cpu.rename.vec_rename_lookups             2700                       # Number of vector rename lookups
system.cpu.rob.rob_reads                     25453615                       # The number of ROB reads
system.cpu.rob.rob_writes                    21798902                       # The number of ROB writes
system.cpu.timesIdled                            5181                       # Number of times that the entire CPU went into an idle state and unscheduled itself
system.cpu.vec_regfile_reads                     2226                       # number of vector regfile reads
system.cpu.vec_regfile_writes                     182                       # number of vector regfile writes
system.cpu.workload.numSyscalls                    35                       # Number of system calls
system.membus.snoop_filter.hit_multi_requests            0                       # Number of requests hitting in the snoop filter with multiple (>1) holders of the requested data.
system.membus.snoop_filter.hit_multi_snoops            0                       # Number of snoops hitting in the snoop filter with multiple (>1) holders of the requested data.
system.membus.snoop_filter.hit_single_requests       173557                       # Number of requests hitting in the snoop filter with a single holder of the requested data.
system.membus.snoop_filter.hit_single_snoops            0                       # Number of snoops hitting in the snoop filter with a single holder of the requested data.
system.membus.snoop_filter.tot_requests        478315                       # Total number of requests made to the snoop filter.
system.membus.snoop_filter.tot_snoops               0                       # Total number of snoops made to the snoop filter.
system.tol2bus.snoop_filter.hit_multi_requests           12                       # Number of requests hitting in the snoop filter with multiple (>1) holders of the requested data.
system.tol2bus.snoop_filter.hit_multi_snoops            0                       # Number of snoops hitting in the snoop filter with multiple (>1) holders of the requested data.
system.tol2bus.snoop_filter.hit_single_requests       309951                       # Number of requests hitting in the snoop filter with a single holder of the requested data.
system.tol2bus.snoop_filter.hit_single_snoops          128                       # Number of snoops hitting in the snoop filter with a single holder of the requested data.
system.tol2bus.snoop_filter.tot_requests       621057                       # Total number of requests made to the snoop filter.
system.tol2bus.snoop_filter.tot_snoops            128                       # Total number of snoops made to the snoop filter.
system.membus.trans_dist::ReadResp                969                       # Transaction distribution
system.membus.trans_dist::WritebackDirty       172745                       # Transaction distribution
system.membus.trans_dist::CleanEvict              812                       # Transaction distribution
system.membus.trans_dist::ReadExReq            303701                       # Transaction distribution
system.membus.trans_dist::ReadExResp           303701                       # Transaction distribution
system.membus.trans_dist::ReadSharedReq           969                       # Transaction distribution
system.membus.trans_dist::InvalidateReq            88                       # Transaction distribution
system.membus.pkt_count_system.l2.mem_side::system.mem_ctrls.port       782985                       # Packet count per connected master and slave (bytes)
system.membus.pkt_count::total                 782985                       # Packet count per connected master and slave (bytes)
system.membus.pkt_size_system.l2.mem_side::system.mem_ctrls.port     30554560                       # Cumulative packet size per connected master and slave (bytes)
system.membus.pkt_size::total                30554560                       # Cumulative packet size per connected master and slave (bytes)
system.membus.snoops                                0                       # Total snoops (count)
system.membus.snoopTraffic                          0                       # Total snoop traffic (bytes)
system.membus.snoop_fanout::samples            304758                       # Request fanout histogram
system.membus.snoop_fanout::mean                    0                       # Request fanout histogram
system.membus.snoop_fanout::stdev                   0                       # Request fanout histogram
system.membus.snoop_fanout::underflows              0      0.00%      0.00% # Request fanout histogram
system.membus.snoop_fanout::0                  304758    100.00%    100.00% # Request fanout histogram
system.membus.snoop_fanout::1                       0      0.00%    100.00% # Request fanout histogram
system.membus.snoop_fanout::overflows               0      0.00%    100.00% # Request fanout histogram
system.membus.snoop_fanout::min_value               0                       # Request fanout histogram
system.membus.snoop_fanout::max_value               0                       # Request fanout histogram
system.membus.snoop_fanout::total              304758                       # Request fanout histogram
system.membus.reqLayer0.occupancy          1273082000                       # Layer occupancy (ticks)
system.membus.reqLayer0.utilization              17.1                       # Layer utilization (%)
system.membus.respLayer1.occupancy         1568018500                       # Layer occupancy (ticks)
system.membus.respLayer1.utilization             21.1                       # Layer utilization (%)
system.membus.power_state.pwrStateResidencyTicks::UNDEFINED   7437017500                       # Cumulative time (in ticks) in various power states
system.tol2bus.trans_dist::ReadResp              7315                       # Transaction distribution
system.tol2bus.trans_dist::WritebackDirty       475586                       # Transaction distribution
system.tol2bus.trans_dist::WritebackClean         6919                       # Transaction distribution
system.tol2bus.trans_dist::CleanEvict            1132                       # Transaction distribution
system.tol2bus.trans_dist::ReadExReq           303703                       # Transaction distribution
system.tol2bus.trans_dist::ReadExResp          303701                       # Transaction distribution
system.tol2bus.trans_dist::ReadCleanReq          7047                       # Transaction distribution
system.tol2bus.trans_dist::ReadSharedReq          268                       # Transaction distribution
system.tol2bus.trans_dist::InvalidateReq           88                       # Transaction distribution
system.tol2bus.trans_dist::InvalidateResp           88                       # Transaction distribution
system.tol2bus.pkt_count_system.cpu.icache.mem_side::system.l2.cpu_side        21013                       # Packet count per connected master and slave (bytes)
system.tol2bus.pkt_count_system.cpu.dcache.mem_side::system.l2.cpu_side       911148                       # Packet count per connected master and slave (bytes)
system.tol2bus.pkt_count::total                932161                       # Packet count per connected master and slave (bytes)
system.tol2bus.pkt_size_system.cpu.icache.mem_side::system.l2.cpu_side       893824                       # Cumulative packet size per connected master and slave (bytes)
system.tol2bus.pkt_size_system.cpu.dcache.mem_side::system.l2.cpu_side     38835776                       # Cumulative packet size per connected master and slave (bytes)
system.tol2bus.pkt_size::total               39729600                       # Cumulative packet size per connected master and slave (bytes)
system.tol2bus.snoops                          173686                       # Total snoops (count)
system.tol2bus.snoopTraffic                  11055744                       # Total snoop traffic (bytes)
system.tol2bus.snoop_fanout::samples           484792                       # Request fanout histogram
system.tol2bus.snoop_fanout::mean            0.000289                       # Request fanout histogram
system.tol2bus.snoop_fanout::stdev           0.016991                       # Request fanout histogram
system.tol2bus.snoop_fanout::underflows             0      0.00%      0.00% # Request fanout histogram
system.tol2bus.snoop_fanout::0                 484652     99.97%     99.97% # Request fanout histogram
system.tol2bus.snoop_fanout::1                    140      0.03%    100.00% # Request fanout histogram
system.tol2bus.snoop_fanout::2                      0      0.00%    100.00% # Request fanout histogram
system.tol2bus.snoop_fanout::overflows              0      0.00%    100.00% # Request fanout histogram
system.tol2bus.snoop_fanout::min_value              0                       # Request fanout histogram
system.tol2bus.snoop_fanout::max_value              1                       # Request fanout histogram
system.tol2bus.snoop_fanout::total             484792                       # Request fanout histogram
system.tol2bus.reqLayer0.occupancy          620287500                       # Layer occupancy (ticks)
system.tol2bus.reqLayer0.utilization              8.3                       # Layer utilization (%)
system.tol2bus.respLayer1.occupancy         455997999                       # Layer occupancy (ticks)
system.tol2bus.respLayer1.utilization             6.1                       # Layer utilization (%)
system.tol2bus.respLayer0.occupancy          10570500                       # Layer occupancy (ticks)
system.tol2bus.respLayer0.utilization             0.1                       # Layer utilization (%)
system.tol2bus.power_state.pwrStateResidencyTicks::UNDEFINED   7437017500                       # Cumulative time (in ticks) in various power states
system.voltage_domain.voltage                       1                       # Voltage in Volts
system.clk_domain.clock                          1000                       # Clock period in ticks
system.l2.demand_hits::.cpu.inst                 6226                       # number of demand (read+write) hits
system.l2.demand_hits::.cpu.data                  121                       # number of demand (read+write) hits
system.l2.demand_hits::total                     6347                       # number of demand (read+write) hits
system.l2.overall_hits::.cpu.inst                6226                       # number of overall hits
system.l2.overall_hits::.cpu.data                 121                       # number of overall hits
system.l2.overall_hits::total                    6347                       # number of overall hits
system.l2.demand_misses::.cpu.inst                821                       # number of demand (read+write) misses
system.l2.demand_misses::.cpu.data             303850                       # number of demand (read+write) misses
system.l2.demand_misses::total                 304671                       # number of demand (read+write) misses
system.l2.overall_misses::.cpu.inst               821                       # number of overall misses
system.l2.overall_misses::.cpu.data            303850                       # number of overall misses
system.l2.overall_misses::total                304671                       # number of overall misses
system.l2.demand_miss_latency::.cpu.inst     64444000                       # number of demand (read+write) miss cycles
system.l2.demand_miss_latency::.cpu.data  31214788000                       # number of demand (read+write) miss cycles
system.l2.demand_miss_latency::total      31279232000                       # number of demand (read+write) miss cycles
system.l2.overall_miss_latency::.cpu.inst     64444000                       # number of overall miss cycles
system.l2.overall_miss_latency::.cpu.data  31214788000                       # number of overall miss cycles
system.l2.overall_miss_latency::total     31279232000                       # number of overall miss cycles
system.l2.demand_accesses::.cpu.inst             7047                       # number of demand (read+write) accesses
system.l2.demand_accesses::.cpu.data           303971                       # number of demand (read+write) accesses
system.l2.demand_accesses::total               311018                       # number of demand (read+write) accesses
system.l2.overall_accesses::.cpu.inst            7047                       # number of overall (read+write) accesses
system.l2.overall_accesses::.cpu.data          303971                       # number of overall (read+write) accesses
system.l2.overall_accesses::total              311018                       # number of overall (read+write) accesses
system.l2.demand_miss_rate::.cpu.inst        0.116503                       # miss rate for demand accesses
system.l2.demand_miss_rate::.cpu.data        0.999602                       # miss rate for demand accesses
system.l2.demand_miss_rate::total            0.979593                       # miss rate for demand accesses
system.l2.overall_miss_rate::.cpu.inst       0.116503                       # miss rate for overall accesses
system.l2.overall_miss_rate::.cpu.data       0.999602                       # miss rate for overall accesses
system.l2.overall_miss_rate::total           0.979593                       # miss rate for overall accesses
system.l2.demand_avg_miss_latency::.cpu.inst 78494.518879                       # average overall miss latency
system.l2.demand_avg_miss_latency::.cpu.data 102730.913280                       # average overall miss latency
system.l2.demand_avg_miss_latency::total 102665.603224                       # average overall miss latency
system.l2.overall_avg_miss_latency::.cpu.inst 78494.518879                       # average overall miss latency
system.l2.overall_avg_miss_latency::.cpu.data 102730.913280                       # average overall miss latency
system.l2.overall_avg_miss_latency::total 102665.603224                       # average overall miss latency
system.l2.blocked_cycles::no_mshrs                  0                       # number of cycles access was blocked
system.l2.blocked_cycles::no_targets                0                       # number of cycles access was blocked
system.l2.blocked::no_mshrs                         0                       # number of cycles access was blocked
system.l2.blocked::no_targets                       0                       # number of cycles access was blocked
system.l2.avg_blocked_cycles::no_mshrs            nan                       # average number of cycles each access was blocked
system.l2.avg_blocked_cycles::no_targets          nan                       # average number of cycles each access was blocked
system.l2.writebacks::.writebacks              172746                       # number of writebacks
system.l2.writebacks::total                    172746                       # number of writebacks
system.l2.demand_mshr_misses::.cpu.inst           821                       # number of demand (read+write) MSHR misses
system.l2.demand_mshr_misses::.cpu.data        303850                       # number of demand (read+write) MSHR misses
system.l2.demand_mshr_misses::total            304671                       # number of demand (read+write) MSHR misses
system.l2.overall_mshr_misses::.cpu.inst          821                       # number of overall MSHR misses
system.l2.overall_mshr_misses::.cpu.data       303850                       # number of overall MSHR misses
system.l2.overall_mshr_misses::total           304671                       # number of overall MSHR misses
system.l2.demand_mshr_miss_latency::.cpu.inst     56234000                       # number of demand (read+write) MSHR miss cycles
system.l2.demand_mshr_miss_latency::.cpu.data  28176298000                       # number of demand (read+write) MSHR miss cycles
system.l2.demand_mshr_miss_latency::total  28232532000                       # number of demand (read+write) MSHR miss cycles
system.l2.overall_mshr_miss_latency::.cpu.inst     56234000                       # number of overall MSHR miss cycles
system.l2.overall_mshr_miss_latency::.cpu.data  28176298000                       # number of overall MSHR miss cycles
system.l2.overall_mshr_miss_latency::total  28232532000                       # number of overall MSHR miss cycles
system.l2.demand_mshr_miss_rate::.cpu.inst     0.116503                       # mshr miss rate for demand accesses
system.l2.demand_mshr_miss_rate::.cpu.data     0.999602                       # mshr miss rate for demand accesses
system.l2.demand_mshr_miss_rate::total       0.979593                       # mshr miss rate for demand accesses
system.l2.overall_mshr_miss_rate::.cpu.inst     0.116503                       # mshr miss rate for overall accesses
system.l2.overall_mshr_miss_rate::.cpu.data     0.999602                       # mshr miss rate for overall accesses
system.l2.overall_mshr_miss_rate::total      0.979593                       # mshr miss rate for overall accesses
system.l2.demand_avg_mshr_miss_latency::.cpu.inst 68494.518879                       # average overall mshr miss latency
system.l2.demand_avg_mshr_miss_latency::.cpu.data 92730.946191                       # average overall mshr miss latency
system.l2.demand_avg_mshr_miss_latency::total 92665.636047                       # average overall mshr miss latency
system.l2.overall_avg_mshr_miss_latency::.cpu.inst 68494.518879                       # average overall mshr miss latency
system.l2.overall_avg_mshr_miss_latency::.cpu.data 92730.946191                       # average overall mshr miss latency
system.l2.overall_avg_mshr_miss_latency::total 92665.636047                       # average overall mshr miss latency
system.l2.replacements                         173686                       # number of replacements
system.l2.WritebackDirty_hits::.writebacks       302840                       # number of WritebackDirty hits
system.l2.WritebackDirty_hits::total           302840                       # number of WritebackDirty hits
system.l2.WritebackDirty_accesses::.writebacks       302840                       # number of WritebackDirty accesses(hits+misses)
system.l2.WritebackDirty_accesses::total       302840                       # number of WritebackDirty accesses(hits+misses)
system.l2.WritebackClean_hits::.writebacks         6908                       # number of WritebackClean hits
system.l2.WritebackClean_hits::total             6908                       # number of WritebackClean hits
system.l2.WritebackClean_accesses::.writebacks         6908                       # number of WritebackClean accesses(hits+misses)
system.l2.WritebackClean_accesses::total         6908                       # number of WritebackClean accesses(hits+misses)
system.l2.ReadExReq_hits::.cpu.data                 1                       # number of ReadExReq hits
system.l2.ReadExReq_hits::total                     1                       # number of ReadExReq hits
system.l2.ReadExReq_misses::.cpu.data          303702                       # number of ReadExReq misses
system.l2.ReadExReq_misses::total              303702                       # number of ReadExReq misses
system.l2.ReadExReq_miss_latency::.cpu.data  31202474000                       # number of ReadExReq miss cycles
system.l2.ReadExReq_miss_latency::total   31202474000                       # number of ReadExReq miss cycles
system.l2.ReadExReq_accesses::.cpu.data        303703                       # number of ReadExReq accesses(hits+misses)
system.l2.ReadExReq_accesses::total            303703                       # number of ReadExReq accesses(hits+misses)
system.l2.ReadExReq_miss_rate::.cpu.data     0.999997                       # miss rate for ReadExReq accesses
system.l2.ReadExReq_miss_rate::total         0.999997                       # miss rate for ReadExReq accesses
system.l2.ReadExReq_avg_miss_latency::.cpu.data 102740.429763                       # average ReadExReq miss latency
system.l2.ReadExReq_avg_miss_latency::total 102740.429763                       # average ReadExReq miss latency
system.l2.ReadExReq_mshr_misses::.cpu.data       303702                       # number of ReadExReq MSHR misses
system.l2.ReadExReq_mshr_misses::total         303702                       # number of ReadExReq MSHR misses
system.l2.ReadExReq_mshr_miss_latency::.cpu.data  28165464000                       # number of ReadExReq MSHR miss cycles
system.l2.ReadExReq_mshr_miss_latency::total  28165464000                       # number of ReadExReq MSHR miss cycles
system.l2.ReadExReq_mshr_miss_rate::.cpu.data     0.999997                       # mshr miss rate for ReadExReq accesses
system.l2.ReadExReq_mshr_miss_rate::total     0.999997                       # mshr miss rate for ReadExReq accesses
system.l2.ReadExReq_avg_mshr_miss_latency::.cpu.data 92740.462690                       # average ReadExReq mshr miss latency
system.l2.ReadExReq_avg_mshr_miss_latency::total 92740.462690                       # average ReadExReq mshr miss latency
system.l2.ReadCleanReq_hits::.cpu.inst           6226                       # number of ReadCleanReq hits
system.l2.ReadCleanReq_hits::total               6226                       # number of ReadCleanReq hits
system.l2.ReadCleanReq_misses::.cpu.inst          821                       # number of ReadCleanReq misses
system.l2.ReadCleanReq_misses::total              821                       # number of ReadCleanReq misses
system.l2.ReadCleanReq_miss_latency::.cpu.inst     64444000                       # number of ReadCleanReq miss cycles
system.l2.ReadCleanReq_miss_latency::total     64444000                       # number of ReadCleanReq miss cycles
system.l2.ReadCleanReq_accesses::.cpu.inst         7047                       # number of ReadCleanReq accesses(hits+misses)
system.l2.ReadCleanReq_accesses::total           7047                       # number of ReadCleanReq accesses(hits+misses)
system.l2.ReadCleanReq_miss_rate::.cpu.inst     0.116503                       # miss rate for ReadCleanReq accesses
system.l2.ReadCleanReq_miss_rate::total      0.116503                       # miss rate for ReadCleanReq accesses
system.l2.ReadCleanReq_avg_miss_latency::.cpu.inst 78494.518879                       # average ReadCleanReq miss latency
system.l2.ReadCleanReq_avg_miss_latency::total 78494.518879                       # average ReadCleanReq miss latency
system.l2.ReadCleanReq_mshr_misses::.cpu.inst          821                       # number of ReadCleanReq MSHR misses
system.l2.ReadCleanReq_mshr_misses::total          821                       # number of ReadCleanReq MSHR misses
system.l2.ReadCleanReq_mshr_miss_latency::.cpu.inst     56234000                       # number of ReadCleanReq MSHR miss cycles
system.l2.ReadCleanReq_mshr_miss_latency::total     56234000                       # number of ReadCleanReq MSHR miss cycles
system.l2.ReadCleanReq_mshr_miss_rate::.cpu.inst     0.116503                       # mshr miss rate for ReadCleanReq accesses
[...]
system.cpu.dcache.overall_miss_latency::total 215786742500                       # number of overall miss cycles
system.cpu.dcache.demand_accesses::.cpu.data      2491579                       # number of demand (read+write) accesses
system.cpu.dcache.demand_accesses::total      2491579                       # number of demand (read+write) accesses
system.cpu.dcache.overall_accesses::.cpu.data      2491717                       # number of overall (read+write) accesses
system.cpu.dcache.overall_accesses::total      2491717                       # number of overall (read+write) accesses
system.cpu.dcache.demand_miss_rate::.cpu.data     0.975134                       # miss rate for demand accesses
system.cpu.dcache.demand_miss_rate::total     0.975134                       # miss rate for demand accesses
system.cpu.dcache.overall_miss_rate::.cpu.data     0.975083                       # miss rate for overall accesses
system.cpu.dcache.overall_miss_rate::total     0.975083                       # miss rate for overall accesses
system.cpu.dcache.demand_avg_miss_latency::.cpu.data 88814.871149                       # average overall miss latency
system.cpu.dcache.demand_avg_miss_latency::total 88814.871149                       # average overall miss latency
system.cpu.dcache.overall_avg_miss_latency::.cpu.data 88814.615265                       # average overall miss latency
system.cpu.dcache.overall_avg_miss_latency::total 88814.615265                       # average overall miss latency
system.cpu.dcache.blocked_cycles::no_mshrs            0                       # number of cycles access was blocked
system.cpu.dcache.blocked_cycles::no_targets            0                       # number of cycles access was blocked
system.cpu.dcache.blocked::no_mshrs                 0                       # number of cycles access was blocked
system.cpu.dcache.blocked::no_targets               0                       # number of cycles access was blocked
system.cpu.dcache.avg_blocked_cycles::no_mshrs          nan                       # average number of cycles each access was blocked
system.cpu.dcache.avg_blocked_cycles::no_targets          nan                       # average number of cycles each access was blocked
system.cpu.dcache.writebacks::.writebacks       302841                       # number of writebacks
system.cpu.dcache.writebacks::total            302841                       # number of writebacks
system.cpu.dcache.demand_mshr_hits::.cpu.data      2125572                       # number of demand (read+write) MSHR hits
system.cpu.dcache.demand_mshr_hits::total      2125572                       # number of demand (read+write) MSHR hits
system.cpu.dcache.overall_mshr_hits::.cpu.data      2125572                       # number of overall MSHR hits
system.cpu.dcache.overall_mshr_hits::total      2125572                       # number of overall MSHR hits
system.cpu.dcache.demand_mshr_misses::.cpu.data       304052                       # number of demand (read+write) MSHR misses
system.cpu.dcache.demand_mshr_misses::total       304052                       # number of demand (read+write) MSHR misses
system.cpu.dcache.overall_mshr_misses::.cpu.data       304059                       # number of overall MSHR misses
system.cpu.dcache.overall_mshr_misses::total       304059                       # number of overall MSHR misses
system.cpu.dcache.demand_mshr_miss_latency::.cpu.data  31676549500                       # number of demand (read+write) MSHR miss cycles
system.cpu.dcache.demand_mshr_miss_latency::total  31676549500                       # number of demand (read+write) MSHR miss cycles
system.cpu.dcache.overall_mshr_miss_latency::.cpu.data  31677076500                       # number of overall MSHR miss cycles
system.cpu.dcache.overall_mshr_miss_latency::total  31677076500                       # number of overall MSHR miss cycles
system.cpu.dcache.demand_mshr_miss_rate::.cpu.data     0.122032                       # mshr miss rate for demand accesses
system.cpu.dcache.demand_mshr_miss_rate::total     0.122032                       # mshr miss rate for demand accesses
system.cpu.dcache.overall_mshr_miss_rate::.cpu.data     0.122028                       # mshr miss rate for overall accesses
system.cpu.dcache.overall_mshr_miss_rate::total     0.122028                       # mshr miss rate for overall accesses
system.cpu.dcache.demand_avg_mshr_miss_latency::.cpu.data 104181.355492                       # average overall mshr miss latency
system.cpu.dcache.demand_avg_mshr_miss_latency::total 104181.355492                       # average overall mshr miss latency
system.cpu.dcache.overall_avg_mshr_miss_latency::.cpu.data 104180.690261                       # average overall mshr miss latency
system.cpu.dcache.overall_avg_mshr_miss_latency::total 104180.690261                       # average overall mshr miss latency
system.cpu.dcache.replacements                 303033                       # number of replacements
system.cpu.dcache.ReadReq_hits::.cpu.data        35649                       # number of ReadReq hits
system.cpu.dcache.ReadReq_hits::total           35649                       # number of ReadReq hits
system.cpu.dcache.ReadReq_misses::.cpu.data          576                       # number of ReadReq misses
system.cpu.dcache.ReadReq_misses::total           576                       # number of ReadReq misses
system.cpu.dcache.ReadReq_miss_latency::.cpu.data     30621000                       # number of ReadReq miss cycles
system.cpu.dcache.ReadReq_miss_latency::total     30621000                       # number of ReadReq miss cycles
system.cpu.dcache.ReadReq_accesses::.cpu.data        36225                       # number of ReadReq accesses(hits+misses)
system.cpu.dcache.ReadReq_accesses::total        36225                       # number of ReadReq accesses(hits+misses)
system.cpu.dcache.ReadReq_miss_rate::.cpu.data     0.015901                       # miss rate for ReadReq accesses
system.cpu.dcache.ReadReq_miss_rate::total     0.015901                       # miss rate for ReadReq accesses
system.cpu.dcache.ReadReq_avg_miss_latency::.cpu.data 53161.458333                       # average ReadReq miss latency
system.cpu.dcache.ReadReq_avg_miss_latency::total 53161.458333                       # average ReadReq miss latency
system.cpu.dcache.ReadReq_mshr_hits::.cpu.data          316                       # number of ReadReq MSHR hits
system.cpu.dcache.ReadReq_mshr_hits::total          316                       # number of ReadReq MSHR hits
system.cpu.dcache.ReadReq_mshr_misses::.cpu.data          260                       # number of ReadReq MSHR misses
system.cpu.dcache.ReadReq_mshr_misses::total          260                       # number of ReadReq MSHR misses
system.cpu.dcache.ReadReq_mshr_miss_latency::.cpu.data     13369500                       # number of ReadReq MSHR miss cycles
system.cpu.dcache.ReadReq_mshr_miss_latency::total     13369500                       # number of ReadReq MSHR miss cycles
system.cpu.dcache.ReadReq_mshr_miss_rate::.cpu.data     0.007177                       # mshr miss rate for ReadReq accesses
system.cpu.dcache.ReadReq_mshr_miss_rate::total     0.007177                       # mshr miss rate for ReadReq accesses
system.cpu.dcache.ReadReq_avg_mshr_miss_latency::.cpu.data 51421.153846                       # average ReadReq mshr miss latency
system.cpu.dcache.ReadReq_avg_mshr_miss_latency::total 51421.153846                       # average ReadReq mshr miss latency
system.cpu.dcache.WriteReq_hits::.cpu.data        26262                       # number of WriteReq hits
system.cpu.dcache.WriteReq_hits::total          26262                       # number of WriteReq hits
system.cpu.dcache.WriteReq_misses::.cpu.data      2428990                       # number of WriteReq misses
system.cpu.dcache.WriteReq_misses::total      2428990                       # number of WriteReq misses
system.cpu.dcache.WriteReq_miss_latency::.cpu.data 215754296000                       # number of WriteReq miss cycles
system.cpu.dcache.WriteReq_miss_latency::total 215754296000                       # number of WriteReq miss cycles
system.cpu.dcache.WriteReq_accesses::.cpu.data      2455252                       # number of WriteReq accesses(hits+misses)
system.cpu.dcache.WriteReq_accesses::total      2455252                       # number of WriteReq accesses(hits+misses)
system.cpu.dcache.WriteReq_miss_rate::.cpu.data     0.989304                       # miss rate for WriteReq accesses
system.cpu.dcache.WriteReq_miss_rate::total     0.989304                       # miss rate for WriteReq accesses
system.cpu.dcache.WriteReq_avg_miss_latency::.cpu.data 88824.695038                       # average WriteReq miss latency
system.cpu.dcache.WriteReq_avg_miss_latency::total 88824.695038                       # average WriteReq miss latency
system.cpu.dcache.WriteReq_mshr_hits::.cpu.data      2125256                       # number of WriteReq MSHR hits
system.cpu.dcache.WriteReq_mshr_hits::total      2125256                       # number of WriteReq MSHR hits
system.cpu.dcache.WriteReq_mshr_misses::.cpu.data       303734                       # number of WriteReq MSHR misses
system.cpu.dcache.WriteReq_mshr_misses::total       303734                       # number of WriteReq MSHR misses
system.cpu.dcache.WriteReq_mshr_miss_latency::.cpu.data  31661412500                       # number of WriteReq MSHR miss cycles
system.cpu.dcache.WriteReq_mshr_miss_latency::total  31661412500                       # number of WriteReq MSHR miss cycles
system.cpu.dcache.WriteReq_mshr_miss_rate::.cpu.data     0.123708                       # mshr miss rate for WriteReq accesses
system.cpu.dcache.WriteReq_mshr_miss_rate::total     0.123708                       # mshr miss rate for WriteReq accesses
system.cpu.dcache.WriteReq_avg_mshr_miss_latency::.cpu.data 104240.593743                       # average WriteReq mshr miss latency
system.cpu.dcache.WriteReq_avg_mshr_miss_latency::total 104240.593743                       # average WriteReq mshr miss latency
system.cpu.dcache.SoftPFReq_hits::.cpu.data          131                       # number of SoftPFReq hits
system.cpu.dcache.SoftPFReq_hits::total           131                       # number of SoftPFReq hits
system.cpu.dcache.SoftPFReq_misses::.cpu.data            7                       # number of SoftPFReq misses
system.cpu.dcache.SoftPFReq_misses::total            7                       # number of SoftPFReq misses
system.cpu.dcache.SoftPFReq_accesses::.cpu.data          138                       # number of SoftPFReq accesses(hits+misses)
system.cpu.dcache.SoftPFReq_accesses::total          138                       # number of SoftPFReq accesses(hits+misses)
system.cpu.dcache.SoftPFReq_miss_rate::.cpu.data     0.050725                       # miss rate for SoftPFReq accesses
system.cpu.dcache.SoftPFReq_miss_rate::total     0.050725                       # miss rate for SoftPFReq accesses
system.cpu.dcache.SoftPFReq_mshr_misses::.cpu.data            7                       # number of SoftPFReq MSHR misses
system.cpu.dcache.SoftPFReq_mshr_misses::total            7                       # number of SoftPFReq MSHR misses
system.cpu.dcache.SoftPFReq_mshr_miss_latency::.cpu.data       527000                       # number of SoftPFReq MSHR miss cycles
system.cpu.dcache.SoftPFReq_mshr_miss_latency::total       527000                       # number of SoftPFReq MSHR miss cycles
system.cpu.dcache.SoftPFReq_mshr_miss_rate::.cpu.data     0.050725                       # mshr miss rate for SoftPFReq accesses
system.cpu.dcache.SoftPFReq_mshr_miss_rate::total     0.050725                       # mshr miss rate for SoftPFReq accesses
system.cpu.dcache.SoftPFReq_avg_mshr_miss_latency::.cpu.data 75285.714286                       # average SoftPFReq mshr miss latency
system.cpu.dcache.SoftPFReq_avg_mshr_miss_latency::total 75285.714286                       # average SoftPFReq mshr miss latency
system.cpu.dcache.WriteLineReq_hits::.cpu.data           44                       # number of WriteLineReq hits
system.cpu.dcache.WriteLineReq_hits::total           44                       # number of WriteLineReq hits
system.cpu.dcache.WriteLineReq_misses::.cpu.data           58                       # number of WriteLineReq misses
system.cpu.dcache.WriteLineReq_misses::total           58                       # number of WriteLineReq misses
system.cpu.dcache.WriteLineReq_miss_latency::.cpu.data      1825500                       # number of WriteLineReq miss cycles
system.cpu.dcache.WriteLineReq_miss_latency::total      1825500                       # number of WriteLineReq miss cycles
system.cpu.dcache.WriteLineReq_accesses::.cpu.data          102                       # number of WriteLineReq accesses(hits+misses)
system.cpu.dcache.WriteLineReq_accesses::total          102                       # number of WriteLineReq accesses(hits+misses)
system.cpu.dcache.WriteLineReq_miss_rate::.cpu.data     0.568627                       # miss rate for WriteLineReq accesses
system.cpu.dcache.WriteLineReq_miss_rate::total     0.568627                       # miss rate for WriteLineReq accesses
system.cpu.dcache.WriteLineReq_avg_miss_latency::.cpu.data 31474.137931                       # average WriteLineReq miss latency
system.cpu.dcache.WriteLineReq_avg_miss_latency::total 31474.137931                       # average WriteLineReq miss latency
system.cpu.dcache.WriteLineReq_mshr_misses::.cpu.data           58                       # number of WriteLineReq MSHR misses
system.cpu.dcache.WriteLineReq_mshr_misses::total           58                       # number of WriteLineReq MSHR misses
system.cpu.dcache.WriteLineReq_mshr_miss_latency::.cpu.data      1767500                       # number of WriteLineReq MSHR miss cycles
system.cpu.dcache.WriteLineReq_mshr_miss_latency::total      1767500                       # number of WriteLineReq MSHR miss cycles
system.cpu.dcache.WriteLineReq_mshr_miss_rate::.cpu.data     0.568627                       # mshr miss rate for WriteLineReq accesses
system.cpu.dcache.WriteLineReq_mshr_miss_rate::total     0.568627                       # mshr miss rate for WriteLineReq accesses
system.cpu.dcache.WriteLineReq_avg_mshr_miss_latency::.cpu.data 30474.137931                       # average WriteLineReq mshr miss latency
system.cpu.dcache.WriteLineReq_avg_mshr_miss_latency::total 30474.137931                       # average WriteLineReq mshr miss latency
system.cpu.dcache.LoadLockedReq_hits::.cpu.data          157                       # number of LoadLockedReq hits
system.cpu.dcache.LoadLockedReq_hits::total          157                       # number of LoadLockedReq hits
system.cpu.dcache.LoadLockedReq_misses::.cpu.data            2                       # number of LoadLockedReq misses
system.cpu.dcache.LoadLockedReq_misses::total            2                       # number of LoadLockedReq misses
system.cpu.dcache.LoadLockedReq_miss_latency::.cpu.data       187000                       # number of LoadLockedReq miss cycles
system.cpu.dcache.LoadLockedReq_miss_latency::total       187000                       # number of LoadLockedReq miss cycles
system.cpu.dcache.LoadLockedReq_accesses::.cpu.data          159                       # number of LoadLockedReq accesses(hits+misses)
system.cpu.dcache.LoadLockedReq_accesses::total          159                       # number of LoadLockedReq accesses(hits+misses)
system.cpu.dcache.LoadLockedReq_miss_rate::.cpu.data     0.012579                       # miss rate for LoadLockedReq accesses
system.cpu.dcache.LoadLockedReq_miss_rate::total     0.012579                       # miss rate for LoadLockedReq accesses
system.cpu.dcache.LoadLockedReq_avg_miss_latency::.cpu.data        93500                       # average LoadLockedReq miss latency
system.cpu.dcache.LoadLockedReq_avg_miss_latency::total        93500                       # average LoadLockedReq miss latency
system.cpu.dcache.LoadLockedReq_mshr_hits::.cpu.data            1                       # number of LoadLockedReq MSHR hits
system.cpu.dcache.LoadLockedReq_mshr_hits::total            1                       # number of LoadLockedReq MSHR hits
system.cpu.dcache.LoadLockedReq_mshr_misses::.cpu.data            1                       # number of LoadLockedReq MSHR misses
system.cpu.dcache.LoadLockedReq_mshr_misses::total            1                       # number of LoadLockedReq MSHR misses
system.cpu.dcache.LoadLockedReq_mshr_miss_latency::.cpu.data        85000                       # number of LoadLockedReq MSHR miss cycles
system.cpu.dcache.LoadLockedReq_mshr_miss_latency::total        85000                       # number of LoadLockedReq MSHR miss cycles
system.cpu.dcache.LoadLockedReq_mshr_miss_rate::.cpu.data     0.006289                       # mshr miss rate for LoadLockedReq accesses
system.cpu.dcache.LoadLockedReq_mshr_miss_rate::total     0.006289                       # mshr miss rate for LoadLockedReq accesses
system.cpu.dcache.LoadLockedReq_avg_mshr_miss_latency::.cpu.data        85000                       # average LoadLockedReq mshr miss latency
system.cpu.dcache.LoadLockedReq_avg_mshr_miss_latency::total        85000                       # average LoadLockedReq mshr miss latency
system.cpu.dcache.StoreCondReq_hits::.cpu.data          138                       # number of StoreCondReq hits
system.cpu.dcache.StoreCondReq_hits::total          138                       # number of StoreCondReq hits
system.cpu.dcache.StoreCondReq_accesses::.cpu.data          138                       # number of StoreCondReq accesses(hits+misses)
system.cpu.dcache.StoreCondReq_accesses::total          138                       # number of StoreCondReq accesses(hits+misses)
system.cpu.dcache.power_state.pwrStateResidencyTicks::UNDEFINED   7437017500                       # Cumulative time (in ticks) in various power states
system.cpu.dcache.tags.tagsinuse          1008.458223                       # Cycle average of tags in use
system.cpu.dcache.tags.total_refs              366438                       # Total number of references to valid blocks.
system.cpu.dcache.tags.sampled_refs            304057                       # Sample count of references to valid blocks.
system.cpu.dcache.tags.avg_refs              1.205162                       # Average number of references to valid blocks.
system.cpu.dcache.tags.warmup_cycle            176500                       # Cycle when the warmup percentage was hit.
system.cpu.dcache.tags.occ_blocks::.cpu.data  1008.458223                       # Average occupied blocks per requestor
system.cpu.dcache.tags.occ_percent::.cpu.data     0.984822                       # Average percentage of cache occupancy
system.cpu.dcache.tags.occ_percent::total     0.984822                       # Average percentage of cache occupancy
system.cpu.dcache.tags.occ_task_id_blocks::1024         1024                       # Occupied blocks per task id
system.cpu.dcache.tags.age_task_id_blocks_1024::0          352                       # Occupied blocks per task id
system.cpu.dcache.tags.age_task_id_blocks_1024::1          672                       # Occupied blocks per task id
system.cpu.dcache.tags.occ_task_id_percent::1024            1                       # Percentage of cache occupancy per task id
system.cpu.dcache.tags.tag_accesses           5288085                       # Number of tag accesses
system.cpu.dcache.tags.data_accesses          5288085                       # Number of data accesses
system.cpu.dcache.tags.power_state.pwrStateResidencyTicks::UNDEFINED   7437017500                       # Cumulative time (in ticks) in various power states
system.cpu.power_state.pwrStateResidencyTicks::ON   7437017500                       # Cumulative time (in ticks) in various power states

---------- End Simulation Statistics   ----------
