
---------- Begin Simulation Statistics ----------
final_tick                                 1424858500                       # Number of ticks from beginning of simulation (restored from checkpoints and never reset)
host_inst_rate                                 118175                       # Simulator instruction rate (inst/s)
host_mem_usage                                 869436                       # Number of bytes of host memory used
host_op_rate                                   136412                       # Simulator op (including micro ops) rate (op/s)
host_seconds                                    23.97                       # Real time elapsed on the host
host_tick_rate                               59433551                       # Simulator tick rate (ticks/s)
sim_freq                                 1000000000000                       # Frequency of simulated ticks
sim_insts                                     2833100                       # Number of instructions simulated
sim_ops                                       3270344                       # Number of ops (including micro ops) simulated
sim_seconds                                  0.001425                       # Number of seconds simulated
sim_ticks                                  1424858500                       # Number of ticks simulated
system.cpu.branchPred.BTBCorrect                    0                       # Number of correct BTB predictions (this stat may not work properly.
system.cpu.branchPred.BTBHitPct             98.476606                       # BTB Hit Percentage
system.cpu.branchPred.BTBHits                  302141                       # Number of BTB hits
system.cpu.branchPred.BTBLookups               306815                       # Number of BTB lookups
system.cpu.branchPred.RASInCorrect                  5                       # Number of incorrect RAS predictions.
system.cpu.branchPred.condIncorrect              7328                       # Number of conditional branches incorrect
system.cpu.branchPred.condPredicted            536528                       # Number of conditional branches predicted
system.cpu.branchPred.indirectHits               1235                       # Number of indirect target hits.
system.cpu.branchPred.indirectLookups            2077                       # Number of indirect predictor lookups.
system.cpu.branchPred.indirectMisses              842                       # Number of indirect misses.
system.cpu.branchPred.lookups                  663779                       # Number of BP lookups
system.cpu.branchPred.usedRAS                   37779                       # Number of times the RAS was used to get a target.
system.cpu.branchPredindirectMispredicted          149                       # Number of mispredicted indirect branches.
system.cpu.cc_regfile_reads                    990894                       # number of cc regfile reads
system.cpu.cc_regfile_writes                   984777                       # number of cc regfile writes
system.cpu.commit.amos                              0                       # Number of atomic instructions committed
system.cpu.commit.branchMispredicts              5910                       # The number of times a branch was mispredicted
system.cpu.commit.branches                     559313                       # Number of branches committed
system.cpu.commit.bw_lim_events                188522                       # number cycles where commit BW limit reached
system.cpu.commit.commitNonSpecStalls             388                       # The number of times commit has been forced to stall to communicate backwards
system.cpu.commit.commitSquashedInsts          284118                       # The number of squashed insts skipped by commit
system.cpu.commit.committedInsts              2845009                       # Number of instructions committed
system.cpu.commit.committedOps                3282253                       # Number of ops (including micro ops) committed
system.cpu.commit.committed_per_cycle::samples      2684359                       # Number of insts commited each cycle
system.cpu.commit.committed_per_cycle::mean     1.222733                       # Number of insts commited each cycle
system.cpu.commit.committed_per_cycle::stdev     2.361221                       # Number of insts commited each cycle
system.cpu.commit.committed_per_cycle::underflows            0      0.00%      0.00% # Number of insts commited each cycle
system.cpu.commit.committed_per_cycle::0      1815097     67.62%     67.62% # Number of insts commited each cycle
system.cpu.commit.committed_per_cycle::1       275183     10.25%     77.87% # Number of insts commited each cycle
system.cpu.commit.committed_per_cycle::2       127919      4.77%     82.63% # Number of insts commited each cycle
system.cpu.commit.committed_per_cycle::3       103579      3.86%     86.49% # Number of insts commited each cycle
system.cpu.commit.committed_per_cycle::4        56343      2.10%     88.59% # Number of insts commited each cycle
system.cpu.commit.committed_per_cycle::5        23695      0.88%     89.47% # Number of insts commited each cycle
system.cpu.commit.committed_per_cycle::6        69675      2.60%     92.07% # Number of insts commited each cycle
system.cpu.commit.committed_per_cycle::7        24346      0.91%     92.98% # Number of insts commited each cycle
system.cpu.commit.committed_per_cycle::8       188522      7.02%    100.00% # Number of insts commited each cycle
system.cpu.commit.committed_per_cycle::overflows            0      0.00%    100.00% # Number of insts commited each cycle
system.cpu.commit.committed_per_cycle::min_value            0                       # Number of insts commited each cycle
system.cpu.commit.committed_per_cycle::max_value            8                       # Number of insts commited each cycle
system.cpu.commit.committed_per_cycle::total      2684359                       # Number of insts commited each cycle
system.cpu.commit.fp_insts                          0                       # Number of committed floating point instructions.
system.cpu.commit.function_calls                29833                       # Number of function calls committed.
system.cpu.commit.int_insts                   2980509                       # Number of committed integer instructions.
system.cpu.commit.loads                        448105                       # Number of loads committed
system.cpu.commit.membars                         278                       # Number of memory barriers committed
system.cpu.commit.op_class_0::No_OpClass           38      0.00%      0.00% # Class of committed instruction
system.cpu.commit.op_class_0::IntAlu          2375636     72.38%     72.38% # Class of committed instruction
system.cpu.commit.op_class_0::IntMult           17827      0.54%     72.92% # Class of committed instruction
system.cpu.commit.op_class_0::IntDiv              512      0.02%     72.94% # Class of committed instruction
system.cpu.commit.op_class_0::FloatAdd            625      0.02%     72.96% # Class of committed instruction
system.cpu.commit.op_class_0::FloatCmp            137      0.00%     72.96% # Class of committed instruction
system.cpu.commit.op_class_0::FloatCvt           1604      0.05%     73.01% # Class of committed instruction
system.cpu.commit.op_class_0::FloatMult           946      0.03%     73.04% # Class of committed instruction
system.cpu.commit.op_class_0::FloatMultAcc         1506      0.05%     73.08% # Class of committed instruction
system.cpu.commit.op_class_0::FloatDiv            628      0.02%     73.10% # Class of committed instruction
system.cpu.commit.op_class_0::FloatMisc          1211      0.04%     73.14% # Class of committed instruction
system.cpu.commit.op_class_0::FloatSqrt             0      0.00%     73.14% # Class of committed instruction
system.cpu.commit.op_class_0::SimdAdd              98      0.00%     73.14% # Class of committed instruction
system.cpu.commit.op_class_0::SimdAddAcc            0      0.00%     73.14% # Class of committed instruction
system.cpu.commit.op_class_0::SimdAlu             162      0.00%     73.15% # Class of committed instruction
system.cpu.commit.op_class_0::SimdCmp             152      0.00%     73.15% # Class of committed instruction
system.cpu.commit.op_class_0::SimdCvt               0      0.00%     73.15% # Class of committed instruction
system.cpu.commit.op_class_0::SimdMisc            754      0.02%     73.18% # Class of committed instruction
system.cpu.commit.op_class_0::SimdMult              0      0.00%     73.18% # Class of committed instruction
system.cpu.commit.op_class_0::SimdMultAcc            0      0.00%     73.18% # Class of committed instruction
system.cpu.commit.op_class_0::SimdShift             0      0.00%     73.18% # Class of committed instruction
system.cpu.commit.op_class_0::SimdShiftAcc            0      0.00%     73.18% # Class of committed instruction
system.cpu.commit.op_class_0::SimdDiv               0      0.00%     73.18% # Class of committed instruction
system.cpu.commit.op_class_0::SimdSqrt              0      0.00%     73.18% # Class of committed instruction
system.cpu.commit.op_class_0::SimdFloatAdd            0      0.00%     73.18% # Class of committed instruction
system.cpu.commit.op_class_0::SimdFloatAlu            0      0.00%     73.18% # Class of committed instruction
system.cpu.commit.op_class_0::SimdFloatCmp            0      0.00%     73.18% # Class of committed instruction
system.cpu.commit.op_class_0::SimdFloatCvt            0      0.00%     73.18% # Class of committed instruction
system.cpu.commit.op_class_0::SimdFloatDiv            0      0.00%     73.18% # Class of committed instruction
system.cpu.commit.op_class_0::SimdFloatMisc            0      0.00%     73.18% # Class of committed instruction
system.cpu.commit.op_class_0::SimdFloatMult            0      0.00%     73.18% # Class of committed instruction
system.cpu.commit.op_class_0::SimdFloatMultAcc            0      0.00%     73.18% # Class of committed instruction
system.cpu.commit.op_class_0::SimdFloatSqrt            0      0.00%     73.18% # Class of committed instruction
system.cpu.commit.op_class_0::SimdReduceAdd            0      0.00%     73.18% # Class of committed instruction
system.cpu.commit.op_class_0::SimdReduceAlu            0      0.00%     73.18% # Class of committed instruction
system.cpu.commit.op_class_0::SimdReduceCmp            0      0.00%     73.18% # Class of committed instruction
system.cpu.commit.op_class_0::SimdFloatReduceAdd            0      0.00%     73.18% # Class of committed instruction
system.cpu.commit.op_class_0::SimdFloatReduceCmp            0      0.00%     73.18% # Class of committed instruction
system.cpu.commit.op_class_0::SimdAes               0      0.00%     73.18% # Class of committed instruction
system.cpu.commit.op_class_0::SimdAesMix            0      0.00%     73.18% # Class of committed instruction
system.cpu.commit.op_class_0::SimdSha1Hash            0      0.00%     73.18% # Class of committed instruction
system.cpu.commit.op_class_0::SimdSha1Hash2            0      0.00%     73.18% # Class of committed instruction
system.cpu.commit.op_class_0::SimdSha256Hash            0      0.00%     73.18% # Class of committed instruction
system.cpu.commit.op_class_0::SimdSha256Hash2            0      0.00%     73.18% # Class of committed instruction
system.cpu.commit.op_class_0::SimdShaSigma2            0      0.00%     73.18% # Class of committed instruction
system.cpu.commit.op_class_0::SimdShaSigma3            0      0.00%     73.18% # Class of committed instruction
system.cpu.commit.op_class_0::SimdPredAlu            0      0.00%     73.18% # Class of committed instruction
system.cpu.commit.op_class_0::MemRead          448105     13.65%     86.83% # Class of committed instruction
system.cpu.commit.op_class_0::MemWrite         432312     13.17%    100.00% # Class of committed instruction
system.cpu.commit.op_class_0::FloatMemRead            0      0.00%    100.00% # Class of committed instruction
system.cpu.commit.op_class_0::FloatMemWrite            0      0.00%    100.00% # Class of committed instruction
system.cpu.commit.op_class_0::IprAccess             0      0.00%    100.00% # Class of committed instruction
system.cpu.commit.op_class_0::InstPrefetch            0      0.00%    100.00% # Class of committed instruction
system.cpu.commit.op_class_0::total           3282253                       # Class of committed instruction
system.cpu.commit.refs                         880417                       # Number of memory references committed
system.cpu.commit.swp_count                         0                       # Number of s/w prefetches committed
system.cpu.commit.vec_insts                     29063                       # Number of committed Vector instructions.
system.cpu.committedInsts                     2833100                       # Number of Instructions Simulated
system.cpu.committedOps                       3270344                       # Number of Ops (including micro ops) Simulated
system.cpu.cpi                               1.005866                       # CPI: Cycles Per Instruction
system.cpu.cpi_total                         1.005866                       # CPI: Total CPI of All Threads
system.cpu.decode.BlockedCycles               1680801                       # Number of cycles decode is blocked
system.cpu.decode.BranchMispred                  1456                       # Number of times decode detected a branch misprediction
system.cpu.decode.BranchResolved               292603                       # Number of times decode resolved a branch
system.cpu.decode.DecodedInsts                3649334                       # Number of instructions handled by decode
system.cpu.decode.IdleCycles                   427558                       # Number of cycles decode is idle
system.cpu.decode.RunCycles                    555123                       # Number of cycles decode is running
system.cpu.decode.SquashCycles                   8879                       # Number of cycles decode is squashing
system.cpu.decode.SquashedInsts                  4550                       # Number of squashed instructions handled by decode
system.cpu.decode.UnblockCycles                 52558                       # Number of cycles decode is unblocking
system.cpu.dtb.accesses                             0                       # DTB accesses
system.cpu.dtb.align_faults                         0                       # Number of TLB faults due to alignment restrictions
system.cpu.dtb.domain_faults                        0                       # Number of TLB faults due to domain restrictions
system.cpu.dtb.flush_entries                        0                       # Number of entries that have been flushed from TLB
system.cpu.dtb.flush_tlb                            0                       # Number of times complete TLB was flushed
system.cpu.dtb.flush_tlb_asid                       0                       # Number of times TLB was flushed by ASID
system.cpu.dtb.flush_tlb_mva                        0                       # Number of times TLB was flushed by MVA
system.cpu.dtb.flush_tlb_mva_asid                   0                       # Number of times TLB was flushed by MVA & ASID
system.cpu.dtb.hits                                 0                       # DTB hits
system.cpu.dtb.inst_accesses                        0                       # ITB inst accesses
system.cpu.dtb.inst_hits                            0                       # ITB inst hits
system.cpu.dtb.inst_misses                          0                       # ITB inst misses
system.cpu.dtb.misses                               0                       # DTB misses
system.cpu.dtb.perms_faults                         0                       # Number of TLB faults due to permissions restrictions
system.cpu.dtb.prefetch_faults                      0                       # Number of TLB faults due to prefetch
system.cpu.dtb.read_accesses                        0                       # DTB read accesses
system.cpu.dtb.read_hits                            0                       # DTB read hits
system.cpu.dtb.read_misses                          0                       # DTB read misses
system.cpu.dtb.stage2_mmu.stage2_tlb.accesses            0                       # DTB accesses
system.cpu.dtb.stage2_mmu.stage2_tlb.align_faults            0                       # Number of TLB faults due to alignment restrictions
system.cpu.dtb.stage2_mmu.stage2_tlb.domain_faults            0                       # Number of TLB faults due to domain restrictions
system.cpu.dtb.stage2_mmu.stage2_tlb.flush_entries            0                       # Number of entries that have been flushed from TLB
system.cpu.dtb.stage2_mmu.stage2_tlb.flush_tlb            0                       # Number of times complete TLB was flushed
system.cpu.dtb.stage2_mmu.stage2_tlb.flush_tlb_asid            0                       # Number of times TLB was flushed by ASID
system.cpu.dtb.stage2_mmu.stage2_tlb.flush_tlb_mva            0                       # Number of times TLB was flushed by MVA
system.cpu.dtb.stage2_mmu.stage2_tlb.flush_tlb_mva_asid            0                       # Number of times TLB was flushed by MVA & ASID
system.cpu.dtb.stage2_mmu.stage2_tlb.hits            0                       # DTB hits
system.cpu.dtb.stage2_mmu.stage2_tlb.inst_accesses            0                       # ITB inst accesses
system.cpu.dtb.stage2_mmu.stage2_tlb.inst_hits            0                       # ITB inst hits
system.cpu.dtb.stage2_mmu.stage2_tlb.inst_misses            0                       # ITB inst misses
system.cpu.dtb.stage2_mmu.stage2_tlb.misses            0                       # DTB misses
system.cpu.dtb.stage2_mmu.stage2_tlb.perms_faults            0                       # Number of TLB faults due to permissions restrictions
system.cpu.dtb.stage2_mmu.stage2_tlb.prefetch_faults            0                       # Number of TLB faults due to prefetch
system.cpu.dtb.stage2_mmu.stage2_tlb.read_accesses            0                       # DTB read accesses
system.cpu.dtb.stage2_mmu.stage2_tlb.read_hits            0                       # DTB read hits
system.cpu.dtb.stage2_mmu.stage2_tlb.read_misses            0                       # DTB read misses
system.cpu.dtb.stage2_mmu.stage2_tlb.walker.walkRequestOrigin_Requested::Data            0                       # Table walker requests started/completed, data/inst
system.cpu.dtb.stage2_mmu.stage2_tlb.walker.walkRequestOrigin_Requested::Inst            0                       # Table walker requests started/completed, data/inst
system.cpu.dtb.stage2_mmu.stage2_tlb.walker.walkRequestOrigin_Requested::total            0                       # Table walker requests started/completed, data/inst
system.cpu.dtb.stage2_mmu.stage2_tlb.walker.walkRequestOrigin_Completed::Data            0                       # Table walker requests started/completed, data/inst
system.cpu.dtb.stage2_mmu.stage2_tlb.walker.walkRequestOrigin_Completed::Inst            0                       # Table walker requests started/completed, data/inst
system.cpu.dtb.stage2_mmu.stage2_tlb.walker.walkRequestOrigin_Completed::total            0                       # Table walker requests started/completed, data/inst
system.cpu.dtb.stage2_mmu.stage2_tlb.walker.walkRequestOrigin::total            0                       # Table walker requests started/completed, data/inst
system.cpu.dtb.stage2_mmu.stage2_tlb.walker.walks            0                       # Table walker walks requested
system.cpu.dtb.stage2_mmu.stage2_tlb.write_accesses            0                       # DTB write accesses
system.cpu.dtb.stage2_mmu.stage2_tlb.write_hits            0                       # DTB write hits
system.cpu.dtb.stage2_mmu.stage2_tlb.write_misses            0                       # DTB write misses
system.cpu.dtb.walker.walkRequestOrigin_Requested::Data            0                       # Table walker requests started/completed, data/inst
system.cpu.dtb.walker.walkRequestOrigin_Requested::Inst            0                       # Table walker requests started/completed, data/inst
system.cpu.dtb.walker.walkRequestOrigin_Requested::total            0                       # Table walker requests started/completed, data/inst
system.cpu.dtb.walker.walkRequestOrigin_Completed::Data            0                       # Table walker requests started/completed, data/inst
system.cpu.dtb.walker.walkRequestOrigin_Completed::Inst            0                       # Table walker requests started/completed, data/inst
system.cpu.dtb.walker.walkRequestOrigin_Completed::total            0                       # Table walker requests started/completed, data/inst
system.cpu.dtb.walker.walkRequestOrigin::total            0                       # Table walker requests started/completed, data/inst
system.cpu.dtb.walker.walks                         0                       # Table walker walks requested
system.cpu.dtb.write_accesses                       0                       # DTB write accesses
system.cpu.dtb.write_hits                           0                       # DTB write hits
system.cpu.dtb.write_misses                         0                       # DTB write misses
system.cpu.fetch.Branches                      663779                       # Number of branches that fetch encountered
system.cpu.fetch.CacheLines                    447157                       # Number of cache lines fetched
system.cpu.fetch.Cycles                       2141054                       # Number of cycles fetch has run and was not squashing or blocked
system.cpu.fetch.IcacheSquashes                  4496                       # Number of outstanding Icache misses that were squashed
system.cpu.fetch.IcacheWaitRetryStallCycles           99                       # Number of stall cycles due to full MSHR
system.cpu.fetch.Insts                        3300167                       # Number of instructions fetch has processed
system.cpu.fetch.MiscStallCycles                   62                       # Number of cycles fetch has spent waiting on interrupts, or bad addresses, or out of MSHRs
system.cpu.fetch.PendingTrapStallCycles           120                       # Number of stall cycles due to pending traps
system.cpu.fetch.SquashCycles                   20634                       # Number of cycles fetch has spent squashing
system.cpu.fetch.branchRate                  0.232928                       # Number of branch fetches per cycle
system.cpu.fetch.icacheStallCycles             573267                       # Number of cycles fetch is stalled on an Icache miss
system.cpu.fetch.predictedBranches             341155                       # Number of branches that fetch has predicted taken
system.cpu.fetch.rate                        1.158068                       # Number of inst fetches per cycle
system.cpu.fetch.rateDist::samples            2724919                       # Number of instructions fetched each cycle (Total)
system.cpu.fetch.rateDist::mean              1.405191                       # Number of instructions fetched each cycle (Total)
system.cpu.fetch.rateDist::stdev             2.674337                       # Number of instructions fetched each cycle (Total)
system.cpu.fetch.rateDist::underflows               0      0.00%      0.00% # Number of instructions fetched each cycle (Total)
system.cpu.fetch.rateDist::0                  2007880     73.69%     73.69% # Number of instructions fetched each cycle (Total)
system.cpu.fetch.rateDist::1                    64171      2.35%     76.04% # Number of instructions fetched each cycle (Total)
system.cpu.fetch.rateDist::2                    76037      2.79%     78.83% # Number of instructions fetched each cycle (Total)
system.cpu.fetch.rateDist::3                    45272      1.66%     80.49% # Number of instructions fetched each cycle (Total)
system.cpu.fetch.rateDist::4                    93239      3.42%     83.91% # Number of instructions fetched each cycle (Total)
system.cpu.fetch.rateDist::5                    82366      3.02%     86.94% # Number of instructions fetched each cycle (Total)
system.cpu.fetch.rateDist::6                    46637      1.71%     88.65% # Number of instructions fetched each cycle (Total)
system.cpu.fetch.rateDist::7                    62174      2.28%     90.93% # Number of instructions fetched each cycle (Total)
system.cpu.fetch.rateDist::8                   247143      9.07%    100.00% # Number of instructions fetched each cycle (Total)
system.cpu.fetch.rateDist::overflows                0      0.00%    100.00% # Number of instructions fetched each cycle (Total)
system.cpu.fetch.rateDist::min_value                0                       # Number of instructions fetched each cycle (Total)
system.cpu.fetch.rateDist::max_value                8                       # Number of instructions fetched each cycle (Total)
system.cpu.fetch.rateDist::total              2724919                       # Number of instructions fetched each cycle (Total)
system.cpu.icache.prefetcher.num_hwpf_issued        28734                       # number of hwpf issued
system.cpu.icache.prefetcher.pfBufferHit         1162                       # number of redundant prefetches already in prefetch queue
system.cpu.icache.prefetcher.pfIdentified        30272                       # number of prefetch candidates identified
system.cpu.icache.prefetcher.pfInCache              0                       # number of redundant prefetches already in cache/mshr dropped
system.cpu.icache.prefetcher.pfRemovedFull           99                       # number of prefetches dropped due to prefetch queue size
system.cpu.icache.prefetcher.pfSpanPage        196208                       # number of prefetches that crossed the page
system.cpu.idleCycles                          124799                       # Total number of cycles that the CPU has spent unscheduled due to idling
system.cpu.iew.branchMispredicts                 6480                       # Number of branch mispredicts detected at execute
system.cpu.iew.exec_branches                   608971                       # Number of branches executed
system.cpu.iew.exec_nop                         12206                       # number of nop insts executed
system.cpu.iew.exec_rate                     1.236868                       # Inst execution rate
system.cpu.iew.exec_refs                       970419                       # number of memory reference insts executed
system.cpu.iew.exec_stores                     466513                       # Number of stores executed
system.cpu.iew.exec_swp                             0                       # number of swp insts executed
system.cpu.iew.iewBlockCycles                   43270                       # Number of cycles IEW is blocking
system.cpu.iew.iewDispLoadInsts                507506                       # Number of dispatched load instructions
system.cpu.iew.iewDispNonSpecInsts                543                       # Number of dispatched non-speculative instructions
system.cpu.iew.iewDispSquashedInsts              6399                       # Number of squashed instructions skipped by dispatch
system.cpu.iew.iewDispStoreInsts               473266                       # Number of dispatched store instructions
system.cpu.iew.iewDispatchedInsts             3578016                       # Number of instructions dispatched to IQ
system.cpu.iew.iewExecLoadInsts                503906                       # Number of load instructions executed
system.cpu.iew.iewExecSquashedInsts             13071                       # Number of squashed instructions skipped in execute
system.cpu.iew.iewExecutedInsts               3524726                       # Number of executed instructions
system.cpu.iew.iewIQFullEvents                    146                       # Number of times the IQ has become full, causing a stall
system.cpu.iew.iewIdleCycles                        0                       # Number of cycles IEW is idle
system.cpu.iew.iewLSQFullEvents                 28518                       # Number of times the LSQ has become full, causing a stall
system.cpu.iew.iewSquashCycles                   8879                       # Number of cycles IEW is squashing
system.cpu.iew.iewUnblockCycles                 28824                       # Number of cycles IEW is unblocking
system.cpu.iew.lsq.thread0.blockedLoads             0                       # Number of blocked loads due to partial load-store forwarding
system.cpu.iew.lsq.thread0.cacheBlocked         13821                       # Number of times an access to memory failed due to the cache being blocked
system.cpu.iew.lsq.thread0.forwLoads            15037                       # Number of loads that had data forwarded from stores
system.cpu.iew.lsq.thread0.ignoredResponses           14                       # Number of memory responses ignored because the instruction is squashed
system.cpu.iew.lsq.thread0.invAddrLoads             0                       # Number of loads ignored due to an invalid address
system.cpu.iew.lsq.thread0.invAddrSwpfs             0                       # Number of software prefetches ignored due to an invalid address
system.cpu.iew.lsq.thread0.memOrderViolation           41                       # Number of memory ordering violations
system.cpu.iew.lsq.thread0.rescheduledLoads         1020                       # Number of loads that were rescheduled
system.cpu.iew.lsq.thread0.squashedLoads        59401                       # Number of loads squashed
system.cpu.iew.lsq.thread0.squashedStores        40954                       # Number of stores squashed
system.cpu.iew.memOrderViolationEvents             41                       # Number of memory order violations
system.cpu.iew.predictedNotTakenIncorrect         3701                       # Number of branches that were predicted not taken incorrectly
system.cpu.iew.predictedTakenIncorrect           2779                       # Number of branches that were predicted taken incorrectly
system.cpu.iew.wb_consumers                   3288050                       # num instructions consuming a value
system.cpu.iew.wb_count                       3503260                       # cumulative count of insts written-back
system.cpu.iew.wb_fanout                     0.610632                       # average fanout of values written-back
system.cpu.iew.wb_producers                   2007790                       # num instructions producing a value
system.cpu.iew.wb_rate                       1.229336                       # insts written-back per cycle
system.cpu.iew.wb_sent                        3515343                       # cumulative count of insts sent to commit
system.cpu.int_regfile_reads                  3993063                       # number of integer regfile reads
system.cpu.int_regfile_writes                 2557846                       # number of integer regfile writes
system.cpu.ipc                               0.994169                       # IPC: Instructions Per Cycle
system.cpu.ipc_total                         0.994169                       # IPC: Total IPC of All Threads
system.cpu.iq.FU_type_0::No_OpClass                62      0.00%      0.00% # Type of FU issued
system.cpu.iq.FU_type_0::IntAlu               2532553     71.59%     71.59% # Type of FU issued
system.cpu.iq.FU_type_0::IntMult                18998      0.54%     72.12% # Type of FU issued
system.cpu.iq.FU_type_0::IntDiv                   608      0.02%     72.14% # Type of FU issued
system.cpu.iq.FU_type_0::FloatAdd                 639      0.02%     72.16% # Type of FU issued
system.cpu.iq.FU_type_0::FloatCmp                 138      0.00%     72.16% # Type of FU issued
system.cpu.iq.FU_type_0::FloatCvt                1998      0.06%     72.22% # Type of FU issued
system.cpu.iq.FU_type_0::FloatMult               1044      0.03%     72.25% # Type of FU issued
system.cpu.iq.FU_type_0::FloatMultAcc            1523      0.04%     72.29% # Type of FU issued
system.cpu.iq.FU_type_0::FloatDiv                 810      0.02%     72.32% # Type of FU issued
system.cpu.iq.FU_type_0::FloatMisc               1613      0.05%     72.36% # Type of FU issued
system.cpu.iq.FU_type_0::FloatSqrt                  0      0.00%     72.36% # Type of FU issued
system.cpu.iq.FU_type_0::SimdAdd                  114      0.00%     72.36% # Type of FU issued
system.cpu.iq.FU_type_0::SimdAddAcc                 0      0.00%     72.36% # Type of FU issued
system.cpu.iq.FU_type_0::SimdAlu                  186      0.01%     72.37% # Type of FU issued
system.cpu.iq.FU_type_0::SimdCmp                  168      0.00%     72.37% # Type of FU issued
system.cpu.iq.FU_type_0::SimdCvt                    0      0.00%     72.37% # Type of FU issued
system.cpu.iq.FU_type_0::SimdMisc                 851      0.02%     72.40% # Type of FU issued
system.cpu.iq.FU_type_0::SimdMult                   0      0.00%     72.40% # Type of FU issued
system.cpu.iq.FU_type_0::SimdMultAcc                0      0.00%     72.40% # Type of FU issued
system.cpu.iq.FU_type_0::SimdShift                  0      0.00%     72.40% # Type of FU issued
system.cpu.iq.FU_type_0::SimdShiftAcc               0      0.00%     72.40% # Type of FU issued
system.cpu.iq.FU_type_0::SimdDiv                    0      0.00%     72.40% # Type of FU issued
system.cpu.iq.FU_type_0::SimdSqrt                   0      0.00%     72.40% # Type of FU issued
system.cpu.iq.FU_type_0::SimdFloatAdd               0      0.00%     72.40% # Type of FU issued
system.cpu.iq.FU_type_0::SimdFloatAlu               0      0.00%     72.40% # Type of FU issued
system.cpu.iq.FU_type_0::SimdFloatCmp               0      0.00%     72.40% # Type of FU issued
system.cpu.iq.FU_type_0::SimdFloatCvt               0      0.00%     72.40% # Type of FU issued
system.cpu.iq.FU_type_0::SimdFloatDiv               0      0.00%     72.40% # Type of FU issued
system.cpu.iq.FU_type_0::SimdFloatMisc              0      0.00%     72.40% # Type of FU issued
system.cpu.iq.FU_type_0::SimdFloatMult              0      0.00%     72.40% # Type of FU issued
system.cpu.iq.FU_type_0::SimdFloatMultAcc            0      0.00%     72.40% # Type of FU issued
system.cpu.iq.FU_type_0::SimdFloatSqrt              0      0.00%     72.40% # Type of FU issued
system.cpu.iq.FU_type_0::SimdReduceAdd              0      0.00%     72.40% # Type of FU issued
system.cpu.iq.FU_type_0::SimdReduceAlu              0      0.00%     72.40% # Type of FU issued
system.cpu.iq.FU_type_0::SimdReduceCmp              0      0.00%     72.40% # Type of FU issued
system.cpu.iq.FU_type_0::SimdFloatReduceAdd            0      0.00%     72.40% # Type of FU issued
system.cpu.iq.FU_type_0::SimdFloatReduceCmp            0      0.00%     72.40% # Type of FU issued
system.cpu.iq.FU_type_0::SimdAes                    0      0.00%     72.40% # Type of FU issued
system.cpu.iq.FU_type_0::SimdAesMix                 0      0.00%     72.40% # Type of FU issued
system.cpu.iq.FU_type_0::SimdSha1Hash               0      0.00%     72.40% # Type of FU issued
system.cpu.iq.FU_type_0::SimdSha1Hash2              0      0.00%     72.40% # Type of FU issued
system.cpu.iq.FU_type_0::SimdSha256Hash             0      0.00%     72.40% # Type of FU issued
system.cpu.iq.FU_type_0::SimdSha256Hash2            0      0.00%     72.40% # Type of FU issued
system.cpu.iq.FU_type_0::SimdShaSigma2              0      0.00%     72.40% # Type of FU issued
system.cpu.iq.FU_type_0::SimdShaSigma3              0      0.00%     72.40% # Type of FU issued
system.cpu.iq.FU_type_0::SimdPredAlu                0      0.00%     72.40% # Type of FU issued
system.cpu.iq.FU_type_0::MemRead               507594     14.35%     86.75% # Type of FU issued
system.cpu.iq.FU_type_0::MemWrite              468898     13.25%    100.00% # Type of FU issued
system.cpu.iq.FU_type_0::FloatMemRead               0      0.00%    100.00% # Type of FU issued
system.cpu.iq.FU_type_0::FloatMemWrite              0      0.00%    100.00% # Type of FU issued
system.cpu.iq.FU_type_0::IprAccess                  0      0.00%    100.00% # Type of FU issued
system.cpu.iq.FU_type_0::InstPrefetch               0      0.00%    100.00% # Type of FU issued
system.cpu.iq.FU_type_0::total                3537797                       # Type of FU issued
system.cpu.iq.fp_alu_accesses                       0                       # Number of floating point alu accesses
system.cpu.iq.fp_inst_queue_reads                   0                       # Number of floating instruction queue reads
system.cpu.iq.fp_inst_queue_wakeup_accesses            0                       # Number of floating instruction queue wakeup accesses
system.cpu.iq.fp_inst_queue_writes                  0                       # Number of floating instruction queue writes
system.cpu.iq.fu_busy_cnt                       54130                       # FU busy when requested
system.cpu.iq.fu_busy_rate                   0.015300                       # FU busy rate (busy events/executed inst)
system.cpu.iq.fu_full::No_OpClass                   0      0.00%      0.00% # attempts to use FU when none available
system.cpu.iq.fu_full::IntAlu                   26715     49.35%     49.35% # attempts to use FU when none available
system.cpu.iq.fu_full::IntMult                    681      1.26%     50.61% # attempts to use FU when none available
system.cpu.iq.fu_full::IntDiv                      39      0.07%     50.68% # attempts to use FU when none available
system.cpu.iq.fu_full::FloatAdd                     0      0.00%     50.68% # attempts to use FU when none available
system.cpu.iq.fu_full::FloatCmp                     0      0.00%     50.68% # attempts to use FU when none available
system.cpu.iq.fu_full::FloatCvt                     0      0.00%     50.68% # attempts to use FU when none available
system.cpu.iq.fu_full::FloatMult                  113      0.21%     50.89% # attempts to use FU when none available
system.cpu.iq.fu_full::FloatMultAcc               160      0.30%     51.19% # attempts to use FU when none available
system.cpu.iq.fu_full::FloatDiv                     0      0.00%     51.19% # attempts to use FU when none available
system.cpu.iq.fu_full::FloatMisc                   64      0.12%     51.31% # attempts to use FU when none available
system.cpu.iq.fu_full::FloatSqrt                    0      0.00%     51.31% # attempts to use FU when none available
system.cpu.iq.fu_full::SimdAdd                      0      0.00%     51.31% # attempts to use FU when none available
system.cpu.iq.fu_full::SimdAddAcc                   0      0.00%     51.31% # attempts to use FU when none available
system.cpu.iq.fu_full::SimdAlu                      2      0.00%     51.31% # attempts to use FU when none available
system.cpu.iq.fu_full::SimdCmp                     12      0.02%     51.33% # attempts to use FU when none available
system.cpu.iq.fu_full::SimdCvt                      0      0.00%     51.33% # attempts to use FU when none available
system.cpu.iq.fu_full::SimdMisc                     0      0.00%     51.33% # attempts to use FU when none available
system.cpu.iq.fu_full::SimdMult                     0      0.00%     51.33% # attempts to use FU when none available
system.cpu.iq.fu_full::SimdMultAcc                  0      0.00%     51.33% # attempts to use FU when none available
system.cpu.iq.fu_full::SimdShift                    0      0.00%     51.33% # attempts to use FU when none available
system.cpu.iq.fu_full::SimdShiftAcc                 0      0.00%     51.33% # attempts to use FU when none available
system.cpu.iq.fu_full::SimdDiv                      0      0.00%     51.33% # attempts to use FU when none available
system.cpu.iq.fu_full::SimdSqrt                     0      0.00%     51.33% # attempts to use FU when none available
system.cpu.iq.fu_full::SimdFloatAdd                 0      0.00%     51.33% # attempts to use FU when none available
system.cpu.iq.fu_full::SimdFloatAlu                 0      0.00%     51.33% # attempts to use FU when none available
system.cpu.iq.fu_full::SimdFloatCmp                 0      0.00%     51.33% # attempts to use FU when none available
system.cpu.iq.fu_full::SimdFloatCvt                 0      0.00%     51.33% # attempts to use FU when none available
system.cpu.iq.fu_full::SimdFloatDiv                 0      0.00%     51.33% # attempts to use FU when none available
system.cpu.iq.fu_full::SimdFloatMisc                0      0.00%     51.33% # attempts to use FU when none available
system.cpu.iq.fu_full::SimdFloatMult                0      0.00%     51.33% # attempts to use FU when none available
system.cpu.iq.fu_full::SimdFloatMultAcc             0      0.00%     51.33% # attempts to use FU when none available
system.cpu.iq.fu_full::SimdFloatSqrt                0      0.00%     51.33% # attempts to use FU when none available
system.cpu.iq.fu_full::SimdReduceAdd                0      0.00%     51.33% # attempts to use FU when none available
system.cpu.iq.fu_full::SimdReduceAlu                0      0.00%     51.33% # attempts to use FU when none available
system.cpu.iq.fu_full::SimdReduceCmp                0      0.00%     51.33% # attempts to use FU when none available
system.cpu.iq.fu_full::SimdFloatReduceAdd            0      0.00%     51.33% # attempts to use FU when none available
system.cpu.iq.fu_full::SimdFloatReduceCmp            0      0.00%     51.33% # attempts to use FU when none available
system.cpu.iq.fu_full::SimdAes                      0      0.00%     51.33% # attempts to use FU when none available
system.cpu.iq.fu_full::SimdAesMix                   0      0.00%     51.33% # attempts to use FU when none available
system.cpu.iq.fu_full::SimdSha1Hash                 0      0.00%     51.33% # attempts to use FU when none available
system.cpu.iq.fu_full::SimdSha1Hash2                0      0.00%     51.33% # attempts to use FU when none available
system.cpu.iq.fu_full::SimdSha256Hash               0      0.00%     51.33% # attempts to use FU when none available
system.cpu.iq.fu_full::SimdSha256Hash2              0      0.00%     51.33% # attempts to use FU when none available
system.cpu.iq.fu_full::SimdShaSigma2                0      0.00%     51.33% # attempts to use FU when none available
system.cpu.iq.fu_full::SimdShaSigma3                0      0.00%     51.33% # attempts to use FU when none available
system.cpu.iq.fu_full::SimdPredAlu                  0      0.00%     51.33% # attempts to use FU when none available
system.cpu.iq.fu_full::MemRead                   4821      8.91%     60.24% # attempts to use FU when none available
system.cpu.iq.fu_full::MemWrite                 21523     39.76%    100.00% # attempts to use FU when none available
system.cpu.iq.fu_full::FloatMemRead                 0      0.00%    100.00% # attempts to use FU when none available
system.cpu.iq.fu_full::FloatMemWrite                0      0.00%    100.00% # attempts to use FU when none available
system.cpu.iq.fu_full::IprAccess                    0      0.00%    100.00% # attempts to use FU when none available
system.cpu.iq.fu_full::InstPrefetch                 0      0.00%    100.00% # attempts to use FU when none available
system.cpu.iq.int_alu_accesses                3556805                       # Number of integer alu accesses
system.cpu.iq.int_inst_queue_reads            9788194                       # Number of integer instruction queue reads
system.cpu.iq.int_inst_queue_wakeup_accesses      3472095                       # Number of integer instruction queue wakeup accesses
system.cpu.iq.int_inst_queue_writes           3822281                       # Number of integer instruction queue writes
system.cpu.iq.iqInstsAdded                    3565267                       # Number of instructions added to the IQ (excludes non-spec)
system.cpu.iq.iqInstsIssued                   3537797                       # Number of instructions issued
system.cpu.iq.iqNonSpecInstsAdded                 543                       # Number of non-speculative instructions added to the IQ
system.cpu.iq.iqSquashedInstsExamined          295465                       # Number of squashed instructions iterated over during squash; mainly for profiling
system.cpu.iq.iqSquashedInstsIssued              1419                       # Number of squashed instructions issued
system.cpu.iq.iqSquashedNonSpecRemoved            155                       # Number of squashed non-spec instructions that were removed
system.cpu.iq.iqSquashedOperandsExamined       129600                       # Number of squashed operands that are examined and possibly removed from graph
system.cpu.iq.issued_per_cycle::samples       2724919                       # Number of insts issued each cycle
system.cpu.iq.issued_per_cycle::mean         1.298313                       # Number of insts issued each cycle
system.cpu.iq.issued_per_cycle::stdev        2.063454                       # Number of insts issued each cycle
system.cpu.iq.issued_per_cycle::underflows            0      0.00%      0.00% # Number of insts issued each cycle
system.cpu.iq.issued_per_cycle::0             1688423     61.96%     61.96% # Number of insts issued each cycle
system.cpu.iq.issued_per_cycle::1              206269      7.57%     69.53% # Number of insts issued each cycle
system.cpu.iq.issued_per_cycle::2              198396      7.28%     76.81% # Number of insts issued each cycle
system.cpu.iq.issued_per_cycle::3              194435      7.14%     83.95% # Number of insts issued each cycle
system.cpu.iq.issued_per_cycle::4              166470      6.11%     90.06% # Number of insts issued each cycle
system.cpu.iq.issued_per_cycle::5               80323      2.95%     93.01% # Number of insts issued each cycle
system.cpu.iq.issued_per_cycle::6               94399      3.46%     96.47% # Number of insts issued each cycle
system.cpu.iq.issued_per_cycle::7               52090      1.91%     98.38% # Number of insts issued each cycle
system.cpu.iq.issued_per_cycle::8               44114      1.62%    100.00% # Number of insts issued each cycle
system.cpu.iq.issued_per_cycle::overflows            0      0.00%    100.00% # Number of insts issued each cycle
system.cpu.iq.issued_per_cycle::min_value            0                       # Number of insts issued each cycle
system.cpu.iq.issued_per_cycle::max_value            8                       # Number of insts issued each cycle
system.cpu.iq.issued_per_cycle::total         2724919                       # Number of insts issued each cycle
system.cpu.iq.rate                           1.241455                       # Inst issue rate
system.cpu.iq.vec_alu_accesses                  35060                       # Number of vector alu accesses
system.cpu.iq.vec_inst_queue_reads              67868                       # Number of vector instruction queue reads
system.cpu.iq.vec_inst_queue_wakeup_accesses        31165                       # Number of vector instruction queue wakeup accesses
system.cpu.iq.vec_inst_queue_writes             39033                       # Number of vector instruction queue writes
system.cpu.itb.accesses                             0                       # DTB accesses
system.cpu.itb.align_faults                         0                       # Number of TLB faults due to alignment restrictions
system.cpu.itb.domain_faults                        0                       # Number of TLB faults due to domain restrictions
system.cpu.itb.flush_entries                        0                       # Number of entries that have been flushed from TLB
system.cpu.itb.flush_tlb                            0                       # Number of times complete TLB was flushed
system.cpu.itb.flush_tlb_asid                       0                       # Number of times TLB was flushed by ASID
system.cpu.itb.flush_tlb_mva                        0                       # Number of times TLB was flushed by MVA
system.cpu.itb.flush_tlb_mva_asid                   0                       # Number of times TLB was flushed by MVA & ASID
system.cpu.itb.hits                                 0                       # DTB hits
system.cpu.itb.inst_accesses                        0                       # ITB inst accesses
system.cpu.itb.inst_hits                            0                       # ITB inst hits
system.cpu.itb.inst_misses                          0                       # ITB inst misses
system.cpu.itb.misses                               0                       # DTB misses
system.cpu.itb.perms_faults                         0                       # Number of TLB faults due to permissions restrictions
system.cpu.itb.prefetch_faults                      0                       # Number of TLB faults due to prefetch
system.cpu.itb.read_accesses                        0                       # DTB read accesses
system.cpu.itb.read_hits                            0                       # DTB read hits
system.cpu.itb.read_misses                          0                       # DTB read misses
system.cpu.itb.stage2_mmu.stage2_tlb.accesses            0                       # DTB accesses
system.cpu.itb.stage2_mmu.stage2_tlb.align_faults            0                       # Number of TLB faults due to alignment restrictions
system.cpu.itb.stage2_mmu.stage2_tlb.domain_faults            0                       # Number of TLB faults due to domain restrictions
system.cpu.itb.stage2_mmu.stage2_tlb.flush_entries            0                       # Number of entries that have been flushed from TLB
system.cpu.itb.stage2_mmu.stage2_tlb.flush_tlb            0                       # Number of times complete TLB was flushed
system.cpu.itb.stage2_mmu.stage2_tlb.flush_tlb_asid            0                       # Number of times TLB was flushed by ASID
system.cpu.itb.stage2_mmu.stage2_tlb.flush_tlb_mva            0                       # Number of times TLB was flushed by MVA
system.cpu.itb.stage2_mmu.stage2_tlb.flush_tlb_mva_asid            0                       # Number of times TLB was flushed by MVA & ASID
system.cpu.itb.stage2_mmu.stage2_tlb.hits            0                       # DTB hits
system.cpu.itb.stage2_mmu.stage2_tlb.inst_accesses            0                       # ITB inst accesses
system.cpu.itb.stage2_mmu.stage2_tlb.inst_hits            0                       # ITB inst hits
system.cpu.itb.stage2_mmu.stage2_tlb.inst_misses            0                       # ITB inst misses
system.cpu.itb.stage2_mmu.stage2_tlb.misses            0                       # DTB misses
system.cpu.itb.stage2_mmu.stage2_tlb.perms_faults            0                       # Number of TLB faults due to permissions restrictions
system.cpu.itb.stage2_mmu.stage2_tlb.prefetch_faults            0                       # Number of TLB faults due to prefetch
system.cpu.itb.stage2_mmu.stage2_tlb.read_accesses            0                       # DTB read accesses
system.cpu.itb.stage2_mmu.stage2_tlb.read_hits            0                       # DTB read hits
system.cpu.itb.stage2_mmu.stage2_tlb.read_misses            0                       # DTB read misses
system.cpu.itb.stage2_mmu.stage2_tlb.walker.walkRequestOrigin_Requested::Data            0                       # Table walker requests started/completed, data/inst
system.cpu.itb.stage2_mmu.stage2_tlb.walker.walkRequestOrigin_Requested::Inst            0                       # Table walker requests started/completed, data/inst
system.cpu.itb.stage2_mmu.stage2_tlb.walker.walkRequestOrigin_Requested::total            0                       # Table walker requests started/completed, data/inst
system.cpu.itb.stage2_mmu.stage2_tlb.walker.walkRequestOrigin_Completed::Data            0                       # Table walker requests started/completed, data/inst
system.cpu.itb.stage2_mmu.stage2_tlb.walker.walkRequestOrigin_Completed::Inst            0                       # Table walker requests started/completed, data/inst
system.cpu.itb.stage2_mmu.stage2_tlb.walker.walkRequestOrigin_Completed::total            0                       # Table walker requests started/completed, data/inst
system.cpu.itb.stage2_mmu.stage2_tlb.walker.walkRequestOrigin::total            0                       # Table walker requests started/completed, data/inst
system.cpu.itb.stage2_mmu.stage2_tlb.walker.walks            0                       # Table walker walks requested
system.cpu.itb.stage2_mmu.stage2_tlb.write_accesses            0                       # DTB write accesses
system.cpu.itb.stage2_mmu.stage2_tlb.write_hits            0                       # DTB write hits
system.cpu.itb.stage2_mmu.stage2_tlb.write_misses            0                       # DTB write misses
system.cpu.itb.walker.walkRequestOrigin_Requested::Data            0                       # Table walker requests started/completed, data/inst
system.cpu.itb.walker.walkRequestOrigin_Requested::Inst            0                       # Table walker requests started/completed, data/inst
system.cpu.itb.walker.walkRequestOrigin_Requested::total            0                       # Table walker requests started/completed, data/inst
system.cpu.itb.walker.walkRequestOrigin_Completed::Data            0                       # Table walker requests started/completed, data/inst
system.cpu.itb.walker.walkRequestOrigin_Completed::Inst            0                       # Table walker requests started/completed, data/inst
system.cpu.itb.walker.walkRequestOrigin_Completed::total            0                       # Table walker requests started/completed, data/inst
system.cpu.itb.walker.walkRequestOrigin::total            0                       # Table walker requests started/completed, data/inst
system.cpu.itb.walker.walks                         0                       # Table walker walks requested
system.cpu.itb.write_accesses                       0                       # DTB write accesses
system.cpu.itb.write_hits                           0                       # DTB write hits
system.cpu.itb.write_misses                         0                       # DTB write misses
system.cpu.memDep0.conflictingLoads              5124                       # Number of conflicting loads.
system.cpu.memDep0.conflictingStores             4908                       # Number of conflicting stores.
system.cpu.memDep0.insertedLoads               507506                       # Number of loads inserted to the mem dependence unit.
system.cpu.memDep0.insertedStores              473266                       # Number of stores inserted to the mem dependence unit.
system.cpu.misc_regfile_reads                 2447309                       # number of misc regfile reads
system.cpu.misc_regfile_writes                   6559                       # number of misc regfile writes
system.cpu.numCycles                          2849718                       # number of cpu cycles simulated
system.cpu.numWorkItemsCompleted                    0                       # number of work items this cpu completed
system.cpu.numWorkItemsStarted                      0                       # number of work items this cpu started
system.cpu.rename.BlockCycles                   77306                       # Number of cycles rename is blocking
system.cpu.rename.CommittedMaps               3318812                       # Number of HB maps that are committed
system.cpu.rename.IQFullEvents                   8732                       # Number of times rename has blocked due to IQ full
system.cpu.rename.IdleCycles                   444994                       # Number of cycles rename is idle
system.cpu.rename.LQFullEvents                   3592                       # Number of times rename has blocked due to LQ full
system.cpu.rename.ROBFullEvents                   581                       # Number of times rename has blocked due to ROB full
system.cpu.rename.RenameLookups               5395823                       # Number of register rename lookups that rename has made
system.cpu.rename.RenamedInsts                3606205                       # Number of instructions processed by rename
system.cpu.rename.RenamedOperands             3644973                       # Number of destination operands rename has renamed
system.cpu.rename.RunCycles                    589370                       # Number of cycles rename is running
system.cpu.rename.SQFullEvents                 276926                       # Number of times rename has blocked due to SQ full
system.cpu.rename.SquashCycles                   8879                       # Number of cycles rename is squashing
system.cpu.rename.UnblockCycles                312827                       # Number of cycles rename is unblocking
system.cpu.rename.UndoneMaps                   326161                       # Number of HB maps that are undone due to squashing
system.cpu.rename.int_rename_lookups          4076359                       # Number of integer rename lookups
system.cpu.rename.serializeStallCycles        1291543                       # count of cycles rename stalled for serializing inst
system.cpu.rename.serializingInsts              24494                       # count of serializing insts renamed
system.cpu.rename.skidInsts                    225930                       # count of insts added to the skid buffer
system.cpu.rename.tempSerializingInsts            542                       # count of temporary serializing insts renamed
system.cpu.rename.vec_rename_lookups            35677                       # Number of vector rename lookups
system.cpu.rob.rob_reads                      6024027                       # The number of ROB reads
system.cpu.rob.rob_writes                     7173341                       # The number of ROB writes
system.cpu.timesIdled                            3384                       # Number of times that the entire CPU went into an idle state and unscheduled itself
system.cpu.vec_regfile_reads                    31942                       # number of vector regfile reads
system.cpu.vec_regfile_writes                   10181                       # number of vector regfile writes
system.cpu.workload.numSyscalls                   109                       # Number of system calls
system.membus.snoop_filter.hit_multi_requests            0                       # Number of requests hitting in the snoop filter with multiple (>1) holders of the requested data.
system.membus.snoop_filter.hit_multi_snoops            0                       # Number of snoops hitting in the snoop filter with multiple (>1) holders of the requested data.
system.membus.snoop_filter.hit_single_requests          456                       # Number of requests hitting in the snoop filter with a single holder of the requested data.
system.membus.snoop_filter.hit_single_snoops            0                       # Number of snoops hitting in the snoop filter with a single holder of the requested data.
system.membus.snoop_filter.tot_requests         27858                       # Total number of requests made to the snoop filter.
system.membus.snoop_filter.tot_snoops               0                       # Total number of snoops made to the snoop filter.
system.tol2bus.snoop_filter.hit_multi_requests            2                       # Number of requests hitting in the snoop filter with multiple (>1) holders of the requested data.
system.tol2bus.snoop_filter.hit_multi_snoops            0                       # Number of snoops hitting in the snoop filter with multiple (>1) holders of the requested data.
system.tol2bus.snoop_filter.hit_single_requests        34160                       # Number of requests hitting in the snoop filter with a single holder of the requested data.
system.tol2bus.snoop_filter.hit_single_snoops            9                       # Number of snoops hitting in the snoop filter with a single holder of the requested data.
system.tol2bus.snoop_filter.tot_requests        69601                       # Total number of requests made to the snoop filter.
system.tol2bus.snoop_filter.tot_snoops              9                       # Total number of snoops made to the snoop filter.
system.membus.trans_dist::ReadResp               1888                       # Transaction distribution
system.membus.trans_dist::WritebackDirty          313                       # Transaction distribution
system.membus.trans_dist::CleanEvict              143                       # Transaction distribution
system.membus.trans_dist::ReadExReq              8391                       # Transaction distribution
system.membus.trans_dist::ReadExResp             8391                       # Transaction distribution
system.membus.trans_dist::ReadSharedReq          1888                       # Transaction distribution
system.membus.trans_dist::InvalidateReq         17123                       # Transaction distribution
system.membus.pkt_count_system.l2.mem_side::system.mem_ctrls.port        38137                       # Packet count per connected master and slave (bytes)
system.membus.pkt_count::total                  38137                       # Packet count per connected master and slave (bytes)
system.membus.pkt_size_system.l2.mem_side::system.mem_ctrls.port       677888                       # Cumulative packet size per connected master and slave (bytes)
system.membus.pkt_size::total                  677888                       # Cumulative packet size per connected master and slave (bytes)
system.membus.snoops                                0                       # Total snoops (count)
system.membus.snoopTraffic                          0                       # Total snoop traffic (bytes)
system.membus.snoop_fanout::samples             27402                       # Request fanout histogram
system.membus.snoop_fanout::mean                    0                       # Request fanout histogram
system.membus.snoop_fanout::stdev                   0                       # Request fanout histogram
system.membus.snoop_fanout::underflows              0      0.00%      0.00% # Request fanout histogram
system.membus.snoop_fanout::0                   27402    100.00%    100.00% # Request fanout histogram
system.membus.snoop_fanout::1                       0      0.00%    100.00% # Request fanout histogram
system.membus.snoop_fanout::overflows               0      0.00%    100.00% # Request fanout histogram
system.membus.snoop_fanout::min_value               0                       # Request fanout histogram
system.membus.snoop_fanout::max_value               0                       # Request fanout histogram
system.membus.snoop_fanout::total               27402                       # Request fanout histogram
system.membus.reqLayer0.occupancy            32623015                       # Layer occupancy (ticks)
system.membus.reqLayer0.utilization               2.3                       # Layer utilization (%)
system.membus.respLayer1.occupancy           54608249                       # Layer occupancy (ticks)
system.membus.respLayer1.utilization              3.8                       # Layer utilization (%)
system.membus.power_state.pwrStateResidencyTicks::UNDEFINED   1424858500                       # Cumulative time (in ticks) in various power states
system.tol2bus.trans_dist::ReadResp              9737                       # Transaction distribution
system.tol2bus.trans_dist::WritebackDirty        25612                       # Transaction distribution
system.tol2bus.trans_dist::WritebackClean         8428                       # Transaction distribution
system.tol2bus.trans_dist::CleanEvict             585                       # Transaction distribution
system.tol2bus.trans_dist::ReadExReq             8547                       # Transaction distribution
system.tol2bus.trans_dist::ReadExResp            8547                       # Transaction distribution
system.tol2bus.trans_dist::ReadCleanReq          8685                       # Transaction distribution
system.tol2bus.trans_dist::ReadSharedReq         1053                       # Transaction distribution
system.tol2bus.trans_dist::InvalidateReq        17156                       # Transaction distribution
system.tol2bus.trans_dist::InvalidateResp        17156                       # Transaction distribution
system.tol2bus.pkt_count_system.cpu.icache.mem_side::system.l2.cpu_side        25797                       # Packet count per connected master and slave (bytes)
system.tol2bus.pkt_count_system.cpu.dcache.mem_side::system.l2.cpu_side        79244                       # Packet count per connected master and slave (bytes)
system.tol2bus.pkt_count::total                105041                       # Packet count per connected master and slave (bytes)
system.tol2bus.pkt_size_system.cpu.icache.mem_side::system.l2.cpu_side      1095168                       # Cumulative packet size per connected master and slave (bytes)
system.tol2bus.pkt_size_system.cpu.dcache.mem_side::system.l2.cpu_side      2233536                       # Cumulative packet size per connected master and slave (bytes)
system.tol2bus.pkt_size::total                3328704                       # Cumulative packet size per connected master and slave (bytes)
system.tol2bus.snoops                             465                       # Total snoops (count)
system.tol2bus.snoopTraffic                     20032                       # Total snoop traffic (bytes)
system.tol2bus.snoop_fanout::samples            35906                       # Request fanout histogram
system.tol2bus.snoop_fanout::mean            0.000306                       # Request fanout histogram
system.tol2bus.snoop_fanout::stdev           0.017501                       # Request fanout histogram
system.tol2bus.snoop_fanout::underflows             0      0.00%      0.00% # Request fanout histogram
system.tol2bus.snoop_fanout::0                  35895     99.97%     99.97% # Request fanout histogram
system.tol2bus.snoop_fanout::1                     11      0.03%    100.00% # Request fanout histogram
system.tol2bus.snoop_fanout::2                      0      0.00%    100.00% # Request fanout histogram
system.tol2bus.snoop_fanout::overflows              0      0.00%    100.00% # Request fanout histogram
system.tol2bus.snoop_fanout::min_value              0                       # Request fanout histogram
system.tol2bus.snoop_fanout::max_value              1                       # Request fanout histogram
system.tol2bus.snoop_fanout::total              35906                       # Request fanout histogram
system.tol2bus.reqLayer0.occupancy           69974281                       # Layer occupancy (ticks)
system.tol2bus.reqLayer0.utilization              4.9                       # Layer utilization (%)
system.tol2bus.respLayer1.occupancy          22979497                       # Layer occupancy (ticks)
system.tol2bus.respLayer1.utilization             1.6                       # Layer utilization (%)
system.tol2bus.respLayer0.occupancy          13026499                       # Layer occupancy (ticks)
system.tol2bus.respLayer0.utilization             0.9                       # Layer utilization (%)
system.tol2bus.power_state.pwrStateResidencyTicks::UNDEFINED   1424858500                       # Cumulative time (in ticks) in various power states
system.voltage_domain.voltage                       1                       # Voltage in Volts
system.clk_domain.clock                          1000                       # Clock period in ticks
system.l2.demand_hits::.cpu.inst                 4379                       # number of demand (read+write) hits
system.l2.demand_hits::.cpu.data                  592                       # number of demand (read+write) hits
system.l2.demand_hits::.cpu.icache.prefetcher         3034                       # number of demand (read+write) hits
system.l2.demand_hits::total                     8005                       # number of demand (read+write) hits
system.l2.overall_hits::.cpu.inst                4379                       # number of overall hits
system.l2.overall_hits::.cpu.data                 592                       # number of overall hits
system.l2.overall_hits::.cpu.icache.prefetcher         3034                       # number of overall hits
system.l2.overall_hits::total                    8005                       # number of overall hits
system.l2.demand_misses::.cpu.inst               1257                       # number of demand (read+write) misses
system.l2.demand_misses::.cpu.data               9008                       # number of demand (read+write) misses
system.l2.demand_misses::.cpu.icache.prefetcher           15                       # number of demand (read+write) misses
system.l2.demand_misses::total                  10280                       # number of demand (read+write) misses
system.l2.overall_misses::.cpu.inst              1257                       # number of overall misses
system.l2.overall_misses::.cpu.data              9008                       # number of overall misses
system.l2.overall_misses::.cpu.icache.prefetcher           15                       # number of overall misses
system.l2.overall_misses::total                 10280                       # number of overall misses
system.l2.demand_miss_latency::.cpu.inst     99845500                       # number of demand (read+write) miss cycles
system.l2.demand_miss_latency::.cpu.data    705931000                       # number of demand (read+write) miss cycles
system.l2.demand_miss_latency::.cpu.icache.prefetcher      1432485                       # number of demand (read+write) miss cycles
system.l2.demand_miss_latency::total        807208985                       # number of demand (read+write) miss cycles
system.l2.overall_miss_latency::.cpu.inst     99845500                       # number of overall miss cycles
system.l2.overall_miss_latency::.cpu.data    705931000                       # number of overall miss cycles
system.l2.overall_miss_latency::.cpu.icache.prefetcher      1432485                       # number of overall miss cycles
system.l2.overall_miss_latency::total       807208985                       # number of overall miss cycles
system.l2.demand_accesses::.cpu.inst             5636                       # number of demand (read+write) accesses
system.l2.demand_accesses::.cpu.data             9600                       # number of demand (read+write) accesses
system.l2.demand_accesses::.cpu.icache.prefetcher         3049                       # number of demand (read+write) accesses
system.l2.demand_accesses::total                18285                       # number of demand (read+write) accesses
system.l2.overall_accesses::.cpu.inst            5636                       # number of overall (read+write) accesses
system.l2.overall_accesses::.cpu.data            9600                       # number of overall (read+write) accesses
system.l2.overall_accesses::.cpu.icache.prefetcher         3049                       # number of overall (read+write) accesses
system.l2.overall_accesses::total               18285                       # number of overall (read+write) accesses
system.l2.demand_miss_rate::.cpu.inst        0.223031                       # miss rate for demand accesses
system.l2.demand_miss_rate::.cpu.data        0.938333                       # miss rate for demand accesses
system.l2.demand_miss_rate::.cpu.icache.prefetcher     0.004920                       # miss rate for demand accesses
system.l2.demand_miss_rate::total            0.562209                       # miss rate for demand accesses
system.l2.overall_miss_rate::.cpu.inst       0.223031                       # miss rate for overall accesses
system.l2.overall_miss_rate::.cpu.data       0.938333                       # miss rate for overall accesses
system.l2.overall_miss_rate::.cpu.icache.prefetcher     0.004920                       # miss rate for overall accesses
system.l2.overall_miss_rate::total           0.562209                       # miss rate for overall accesses
system.l2.demand_avg_miss_latency::.cpu.inst 79431.583134                       # average overall miss latency
system.l2.demand_avg_miss_latency::.cpu.data 78367.118117                       # average overall miss latency
system.l2.demand_avg_miss_latency::.cpu.icache.prefetcher        95499                       # average overall miss latency
system.l2.demand_avg_miss_latency::total 78522.274805                       # average overall miss latency
system.l2.overall_avg_miss_latency::.cpu.inst 79431.583134                       # average overall miss latency
system.l2.overall_avg_miss_latency::.cpu.data 78367.118117                       # average overall miss latency
system.l2.overall_avg_miss_latency::.cpu.icache.prefetcher        95499                       # average overall miss latency
system.l2.overall_avg_miss_latency::total 78522.274805                       # average overall miss latency
system.l2.blocked_cycles::no_mshrs                  0                       # number of cycles access was blocked
system.l2.blocked_cycles::no_targets                0                       # number of cycles access was blocked
system.l2.blocked::no_mshrs                         0                       # number of cycles access was blocked
system.l2.blocked::no_targets                       0                       # number of cycles access was blocked
system.l2.avg_blocked_cycles::no_mshrs            nan                       # average number of cycles each access was blocked
system.l2.avg_blocked_cycles::no_targets          nan                       # average number of cycles each access was blocked
system.l2.writebacks::.writebacks                 313                       # number of writebacks
system.l2.writebacks::total                       313                       # number of writebacks
system.l2.demand_mshr_misses::.cpu.inst          1257                       # number of demand (read+write) MSHR misses
system.l2.demand_mshr_misses::.cpu.data          9008                       # number of demand (read+write) MSHR misses
system.l2.demand_mshr_misses::.cpu.icache.prefetcher           15                       # number of demand (read+write) MSHR misses
system.l2.demand_mshr_misses::total             10280                       # number of demand (read+write) MSHR misses
system.l2.overall_mshr_misses::.cpu.inst         1257                       # number of overall MSHR misses
system.l2.overall_mshr_misses::.cpu.data         9008                       # number of overall MSHR misses
system.l2.overall_mshr_misses::.cpu.icache.prefetcher           15                       # number of overall MSHR misses
system.l2.overall_mshr_misses::total            10280                       # number of overall MSHR misses
system.l2.demand_mshr_miss_latency::.cpu.inst     87282506                       # number of demand (read+write) MSHR miss cycles
system.l2.demand_mshr_miss_latency::.cpu.data    615850002                       # number of demand (read+write) MSHR miss cycles
system.l2.demand_mshr_miss_latency::.cpu.icache.prefetcher      1282485                       # number of demand (read+write) MSHR miss cycles
system.l2.demand_mshr_miss_latency::total    704414993                       # number of demand (read+write) MSHR miss cycles
system.l2.overall_mshr_miss_latency::.cpu.inst     87282506                       # number of overall MSHR miss cycles
system.l2.overall_mshr_miss_latency::.cpu.data    615850002                       # number of overall MSHR miss cycles
system.l2.overall_mshr_miss_latency::.cpu.icache.prefetcher      1282485                       # number of overall MSHR miss cycles
system.l2.overall_mshr_miss_latency::total    704414993                       # number of overall MSHR miss cycles
system.l2.demand_mshr_miss_rate::.cpu.inst     0.223031                       # mshr miss rate for demand accesses
system.l2.demand_mshr_miss_rate::.cpu.data     0.938333                       # mshr miss rate for demand accesses
system.l2.demand_mshr_miss_rate::.cpu.icache.prefetcher     0.004920                       # mshr miss rate for demand accesses
system.l2.demand_mshr_miss_rate::total       0.562209                       # mshr miss rate for demand accesses
system.l2.overall_mshr_miss_rate::.cpu.inst     0.223031                       # mshr miss rate for overall accesses
system.l2.overall_mshr_miss_rate::.cpu.data     0.938333                       # mshr miss rate for overall accesses
system.l2.overall_mshr_miss_rate::.cpu.icache.prefetcher     0.004920                       # mshr miss rate for overall accesses
system.l2.overall_mshr_miss_rate::total      0.562209                       # mshr miss rate for overall accesses
system.l2.demand_avg_mshr_miss_latency::.cpu.inst 69437.156722                       # average overall mshr miss latency
system.l2.demand_avg_mshr_miss_latency::.cpu.data 68367.007327                       # average overall mshr miss latency
system.l2.demand_avg_mshr_miss_latency::.cpu.icache.prefetcher        85499                       # average overall mshr miss latency
system.l2.demand_avg_mshr_miss_latency::total 68522.859241                       # average overall mshr miss latency
system.l2.overall_avg_mshr_miss_latency::.cpu.inst 69437.156722                       # average overall mshr miss latency
system.l2.overall_avg_mshr_miss_latency::.cpu.data 68367.007327                       # average overall mshr miss latency
system.l2.overall_avg_mshr_miss_latency::.cpu.icache.prefetcher        85499                       # average overall mshr miss latency
system.l2.overall_avg_mshr_miss_latency::total 68522.859241                       # average overall mshr miss latency
system.l2.replacements                            465                       # number of replacements
system.l2.WritebackDirty_hits::.writebacks        25299                       # number of WritebackDirty hits
system.l2.WritebackDirty_hits::total            25299                       # number of WritebackDirty hits
system.l2.WritebackDirty_accesses::.writebacks        25299                       # number of WritebackDirty accesses(hits+misses)
system.l2.WritebackDirty_accesses::total        25299                       # number of WritebackDirty accesses(hits+misses)
system.l2.WritebackClean_hits::.writebacks         8427                       # number of WritebackClean hits
system.l2.WritebackClean_hits::total             8427                       # number of WritebackClean hits
system.l2.WritebackClean_accesses::.writebacks         8427                       # number of WritebackClean accesses(hits+misses)
system.l2.WritebackClean_accesses::total         8427                       # number of WritebackClean accesses(hits+misses)
system.l2.ReadExReq_hits::.cpu.data               156                       # number of ReadExReq hits
system.l2.ReadExReq_hits::total                   156                       # number of ReadExReq hits
system.l2.ReadExReq_misses::.cpu.data            8391                       # number of ReadExReq misses
system.l2.ReadExReq_misses::total                8391                       # number of ReadExReq misses
system.l2.ReadExReq_miss_latency::.cpu.data    656622500                       # number of ReadExReq miss cycles
system.l2.ReadExReq_miss_latency::total     656622500                       # number of ReadExReq miss cycles
system.l2.ReadExReq_accesses::.cpu.data          8547                       # number of ReadExReq accesses(hits+misses)
system.l2.ReadExReq_accesses::total              8547                       # number of ReadExReq accesses(hits+misses)
[...]
system.cpu.dcache.demand_accesses::.cpu.data       917667                       # number of demand (read+write) accesses
system.cpu.dcache.demand_accesses::total       917667                       # number of demand (read+write) accesses
system.cpu.dcache.overall_accesses::.cpu.data       917725                       # number of overall (read+write) accesses
system.cpu.dcache.overall_accesses::total       917725                       # number of overall (read+write) accesses
system.cpu.dcache.demand_miss_rate::.cpu.data     0.057408                       # miss rate for demand accesses
system.cpu.dcache.demand_miss_rate::total     0.057408                       # miss rate for demand accesses
system.cpu.dcache.overall_miss_rate::.cpu.data     0.057410                       # miss rate for overall accesses
system.cpu.dcache.overall_miss_rate::total     0.057410                       # miss rate for overall accesses
system.cpu.dcache.demand_avg_miss_latency::.cpu.data 53680.821738                       # average overall miss latency
system.cpu.dcache.demand_avg_miss_latency::total 53680.821738                       # average overall miss latency
system.cpu.dcache.overall_avg_miss_latency::.cpu.data 53674.708562                       # average overall miss latency
system.cpu.dcache.overall_avg_miss_latency::total 53674.708562                       # average overall miss latency
system.cpu.dcache.blocked_cycles::no_mshrs       265258                       # number of cycles access was blocked
system.cpu.dcache.blocked_cycles::no_targets            0                       # number of cycles access was blocked
system.cpu.dcache.blocked::no_mshrs             16127                       # number of cycles access was blocked
system.cpu.dcache.blocked::no_targets               0                       # number of cycles access was blocked
system.cpu.dcache.avg_blocked_cycles::no_mshrs    16.448068                       # average number of cycles each access was blocked
system.cpu.dcache.avg_blocked_cycles::no_targets          nan                       # average number of cycles each access was blocked
system.cpu.dcache.writebacks::.writebacks        25299                       # number of writebacks
system.cpu.dcache.writebacks::total             25299                       # number of writebacks
system.cpu.dcache.demand_mshr_hits::.cpu.data        25930                       # number of demand (read+write) MSHR hits
system.cpu.dcache.demand_mshr_hits::total        25930                       # number of demand (read+write) MSHR hits
system.cpu.dcache.overall_mshr_hits::.cpu.data        25930                       # number of overall MSHR hits
system.cpu.dcache.overall_mshr_hits::total        25930                       # number of overall MSHR hits
system.cpu.dcache.demand_mshr_misses::.cpu.data        26751                       # number of demand (read+write) MSHR misses
system.cpu.dcache.demand_mshr_misses::total        26751                       # number of demand (read+write) MSHR misses
system.cpu.dcache.overall_mshr_misses::.cpu.data        26753                       # number of overall MSHR misses
system.cpu.dcache.overall_mshr_misses::total        26753                       # number of overall MSHR misses
system.cpu.dcache.demand_mshr_miss_latency::.cpu.data   1271350247                       # number of demand (read+write) MSHR miss cycles
system.cpu.dcache.demand_mshr_miss_latency::total   1271350247                       # number of demand (read+write) MSHR miss cycles
system.cpu.dcache.overall_mshr_miss_latency::.cpu.data   1271534747                       # number of overall MSHR miss cycles
system.cpu.dcache.overall_mshr_miss_latency::total   1271534747                       # number of overall MSHR miss cycles
system.cpu.dcache.demand_mshr_miss_rate::.cpu.data     0.029151                       # mshr miss rate for demand accesses
system.cpu.dcache.demand_mshr_miss_rate::total     0.029151                       # mshr miss rate for demand accesses
system.cpu.dcache.overall_mshr_miss_rate::.cpu.data     0.029151                       # mshr miss rate for overall accesses
system.cpu.dcache.overall_mshr_miss_rate::total     0.029151                       # mshr miss rate for overall accesses
system.cpu.dcache.demand_avg_mshr_miss_latency::.cpu.data 47525.335389                       # average overall mshr miss latency
system.cpu.dcache.demand_avg_mshr_miss_latency::total 47525.335389                       # average overall mshr miss latency
system.cpu.dcache.overall_avg_mshr_miss_latency::.cpu.data 47528.678915                       # average overall mshr miss latency
system.cpu.dcache.overall_avg_mshr_miss_latency::total 47528.678915                       # average overall mshr miss latency
system.cpu.dcache.replacements                  25732                       # number of replacements
system.cpu.dcache.ReadReq_hits::.cpu.data       480366                       # number of ReadReq hits
system.cpu.dcache.ReadReq_hits::total          480366                       # number of ReadReq hits
system.cpu.dcache.ReadReq_misses::.cpu.data         2776                       # number of ReadReq misses
system.cpu.dcache.ReadReq_misses::total          2776                       # number of ReadReq misses
system.cpu.dcache.ReadReq_miss_latency::.cpu.data    146054000                       # number of ReadReq miss cycles
system.cpu.dcache.ReadReq_miss_latency::total    146054000                       # number of ReadReq miss cycles
system.cpu.dcache.ReadReq_accesses::.cpu.data       483142                       # number of ReadReq accesses(hits+misses)
system.cpu.dcache.ReadReq_accesses::total       483142                       # number of ReadReq accesses(hits+misses)
system.cpu.dcache.ReadReq_miss_rate::.cpu.data     0.005746                       # miss rate for ReadReq accesses
system.cpu.dcache.ReadReq_miss_rate::total     0.005746                       # miss rate for ReadReq accesses
system.cpu.dcache.ReadReq_avg_miss_latency::.cpu.data 52613.112392                       # average ReadReq miss latency
system.cpu.dcache.ReadReq_avg_miss_latency::total 52613.112392                       # average ReadReq miss latency
system.cpu.dcache.ReadReq_mshr_hits::.cpu.data         1727                       # number of ReadReq MSHR hits
system.cpu.dcache.ReadReq_mshr_hits::total         1727                       # number of ReadReq MSHR hits
system.cpu.dcache.ReadReq_mshr_misses::.cpu.data         1049                       # number of ReadReq MSHR misses
system.cpu.dcache.ReadReq_mshr_misses::total         1049                       # number of ReadReq MSHR misses
system.cpu.dcache.ReadReq_mshr_miss_latency::.cpu.data     55118000                       # number of ReadReq MSHR miss cycles
system.cpu.dcache.ReadReq_mshr_miss_latency::total     55118000                       # number of ReadReq MSHR miss cycles
system.cpu.dcache.ReadReq_mshr_miss_rate::.cpu.data     0.002171                       # mshr miss rate for ReadReq accesses
system.cpu.dcache.ReadReq_mshr_miss_rate::total     0.002171                       # mshr miss rate for ReadReq accesses
system.cpu.dcache.ReadReq_avg_mshr_miss_latency::.cpu.data 52543.374643                       # average ReadReq mshr miss latency
system.cpu.dcache.ReadReq_avg_mshr_miss_latency::total 52543.374643                       # average ReadReq mshr miss latency
system.cpu.dcache.WriteReq_hits::.cpu.data       384332                       # number of WriteReq hits
system.cpu.dcache.WriteReq_hits::total         384332                       # number of WriteReq hits
system.cpu.dcache.WriteReq_misses::.cpu.data        33275                       # number of WriteReq misses
system.cpu.dcache.WriteReq_misses::total        33275                       # number of WriteReq misses
system.cpu.dcache.WriteReq_miss_latency::.cpu.data   2136114060                       # number of WriteReq miss cycles
system.cpu.dcache.WriteReq_miss_latency::total   2136114060                       # number of WriteReq miss cycles
system.cpu.dcache.WriteReq_accesses::.cpu.data       417607                       # number of WriteReq accesses(hits+misses)
system.cpu.dcache.WriteReq_accesses::total       417607                       # number of WriteReq accesses(hits+misses)
system.cpu.dcache.WriteReq_miss_rate::.cpu.data     0.079680                       # miss rate for WriteReq accesses
system.cpu.dcache.WriteReq_miss_rate::total     0.079680                       # miss rate for WriteReq accesses
system.cpu.dcache.WriteReq_avg_miss_latency::.cpu.data 64195.764388                       # average WriteReq miss latency
system.cpu.dcache.WriteReq_avg_miss_latency::total 64195.764388                       # average WriteReq miss latency
system.cpu.dcache.WriteReq_mshr_hits::.cpu.data        24203                       # number of WriteReq MSHR hits
system.cpu.dcache.WriteReq_mshr_hits::total        24203                       # number of WriteReq MSHR hits
system.cpu.dcache.WriteReq_mshr_misses::.cpu.data         9072                       # number of WriteReq MSHR misses
system.cpu.dcache.WriteReq_mshr_misses::total         9072                       # number of WriteReq MSHR misses
system.cpu.dcache.WriteReq_mshr_miss_latency::.cpu.data    687070937                       # number of WriteReq MSHR miss cycles
system.cpu.dcache.WriteReq_mshr_miss_latency::total    687070937                       # number of WriteReq MSHR miss cycles
system.cpu.dcache.WriteReq_mshr_miss_rate::.cpu.data     0.021724                       # mshr miss rate for WriteReq accesses
system.cpu.dcache.WriteReq_mshr_miss_rate::total     0.021724                       # mshr miss rate for WriteReq accesses
system.cpu.dcache.WriteReq_avg_mshr_miss_latency::.cpu.data 75735.332562                       # average WriteReq mshr miss latency
system.cpu.dcache.WriteReq_avg_mshr_miss_latency::total 75735.332562                       # average WriteReq mshr miss latency
system.cpu.dcache.SoftPFReq_hits::.cpu.data           52                       # number of SoftPFReq hits
system.cpu.dcache.SoftPFReq_hits::total            52                       # number of SoftPFReq hits
system.cpu.dcache.SoftPFReq_misses::.cpu.data            6                       # number of SoftPFReq misses
system.cpu.dcache.SoftPFReq_misses::total            6                       # number of SoftPFReq misses
system.cpu.dcache.SoftPFReq_accesses::.cpu.data           58                       # number of SoftPFReq accesses(hits+misses)
system.cpu.dcache.SoftPFReq_accesses::total           58                       # number of SoftPFReq accesses(hits+misses)
system.cpu.dcache.SoftPFReq_miss_rate::.cpu.data     0.103448                       # miss rate for SoftPFReq accesses
system.cpu.dcache.SoftPFReq_miss_rate::total     0.103448                       # miss rate for SoftPFReq accesses
system.cpu.dcache.SoftPFReq_mshr_misses::.cpu.data            2                       # number of SoftPFReq MSHR misses
system.cpu.dcache.SoftPFReq_mshr_misses::total            2                       # number of SoftPFReq MSHR misses
system.cpu.dcache.SoftPFReq_mshr_miss_latency::.cpu.data       184500                       # number of SoftPFReq MSHR miss cycles
system.cpu.dcache.SoftPFReq_mshr_miss_latency::total       184500                       # number of SoftPFReq MSHR miss cycles
system.cpu.dcache.SoftPFReq_mshr_miss_rate::.cpu.data     0.034483                       # mshr miss rate for SoftPFReq accesses
system.cpu.dcache.SoftPFReq_mshr_miss_rate::total     0.034483                       # mshr miss rate for SoftPFReq accesses
system.cpu.dcache.SoftPFReq_avg_mshr_miss_latency::.cpu.data        92250                       # average SoftPFReq mshr miss latency
system.cpu.dcache.SoftPFReq_avg_mshr_miss_latency::total        92250                       # average SoftPFReq mshr miss latency
system.cpu.dcache.WriteLineReq_hits::.cpu.data          288                       # number of WriteLineReq hits
system.cpu.dcache.WriteLineReq_hits::total          288                       # number of WriteLineReq hits
system.cpu.dcache.WriteLineReq_misses::.cpu.data        16630                       # number of WriteLineReq misses
system.cpu.dcache.WriteLineReq_misses::total        16630                       # number of WriteLineReq misses
system.cpu.dcache.WriteLineReq_miss_latency::.cpu.data    545791310                       # number of WriteLineReq miss cycles
system.cpu.dcache.WriteLineReq_miss_latency::total    545791310                       # number of WriteLineReq miss cycles
system.cpu.dcache.WriteLineReq_accesses::.cpu.data        16918                       # number of WriteLineReq accesses(hits+misses)
system.cpu.dcache.WriteLineReq_accesses::total        16918                       # number of WriteLineReq accesses(hits+misses)
system.cpu.dcache.WriteLineReq_miss_rate::.cpu.data     0.982977                       # miss rate for WriteLineReq accesses
system.cpu.dcache.WriteLineReq_miss_rate::total     0.982977                       # miss rate for WriteLineReq accesses
system.cpu.dcache.WriteLineReq_avg_miss_latency::.cpu.data 32819.681900                       # average WriteLineReq miss latency
system.cpu.dcache.WriteLineReq_avg_miss_latency::total 32819.681900                       # average WriteLineReq miss latency
system.cpu.dcache.WriteLineReq_mshr_misses::.cpu.data        16630                       # number of WriteLineReq MSHR misses
system.cpu.dcache.WriteLineReq_mshr_misses::total        16630                       # number of WriteLineReq MSHR misses
system.cpu.dcache.WriteLineReq_mshr_miss_latency::.cpu.data    529161310                       # number of WriteLineReq MSHR miss cycles
system.cpu.dcache.WriteLineReq_mshr_miss_latency::total    529161310                       # number of WriteLineReq MSHR miss cycles
system.cpu.dcache.WriteLineReq_mshr_miss_rate::.cpu.data     0.982977                       # mshr miss rate for WriteLineReq accesses
system.cpu.dcache.WriteLineReq_mshr_miss_rate::total     0.982977                       # mshr miss rate for WriteLineReq accesses
system.cpu.dcache.WriteLineReq_avg_mshr_miss_latency::.cpu.data 31819.681900                       # average WriteLineReq mshr miss latency
system.cpu.dcache.WriteLineReq_avg_mshr_miss_latency::total 31819.681900                       # average WriteLineReq mshr miss latency
system.cpu.dcache.LoadLockedReq_hits::.cpu.data          297                       # number of LoadLockedReq hits
system.cpu.dcache.LoadLockedReq_hits::total          297                       # number of LoadLockedReq hits
system.cpu.dcache.LoadLockedReq_misses::.cpu.data            5                       # number of LoadLockedReq misses
system.cpu.dcache.LoadLockedReq_misses::total            5                       # number of LoadLockedReq misses
system.cpu.dcache.LoadLockedReq_miss_latency::.cpu.data       555500                       # number of LoadLockedReq miss cycles
system.cpu.dcache.LoadLockedReq_miss_latency::total       555500                       # number of LoadLockedReq miss cycles
system.cpu.dcache.LoadLockedReq_accesses::.cpu.data          302                       # number of LoadLockedReq accesses(hits+misses)
system.cpu.dcache.LoadLockedReq_accesses::total          302                       # number of LoadLockedReq accesses(hits+misses)
system.cpu.dcache.LoadLockedReq_miss_rate::.cpu.data     0.016556                       # miss rate for LoadLockedReq accesses
system.cpu.dcache.LoadLockedReq_miss_rate::total     0.016556                       # miss rate for LoadLockedReq accesses
system.cpu.dcache.LoadLockedReq_avg_miss_latency::.cpu.data       111100                       # average LoadLockedReq miss latency
system.cpu.dcache.LoadLockedReq_avg_miss_latency::total       111100                       # average LoadLockedReq miss latency
system.cpu.dcache.LoadLockedReq_mshr_hits::.cpu.data            2                       # number of LoadLockedReq MSHR hits
system.cpu.dcache.LoadLockedReq_mshr_hits::total            2                       # number of LoadLockedReq MSHR hits
system.cpu.dcache.LoadLockedReq_mshr_misses::.cpu.data            3                       # number of LoadLockedReq MSHR misses
system.cpu.dcache.LoadLockedReq_mshr_misses::total            3                       # number of LoadLockedReq MSHR misses
system.cpu.dcache.LoadLockedReq_mshr_miss_latency::.cpu.data       365500                       # number of LoadLockedReq MSHR miss cycles
system.cpu.dcache.LoadLockedReq_mshr_miss_latency::total       365500                       # number of LoadLockedReq MSHR miss cycles
system.cpu.dcache.LoadLockedReq_mshr_miss_rate::.cpu.data     0.009934                       # mshr miss rate for LoadLockedReq accesses
system.cpu.dcache.LoadLockedReq_mshr_miss_rate::total     0.009934                       # mshr miss rate for LoadLockedReq accesses
system.cpu.dcache.LoadLockedReq_avg_mshr_miss_latency::.cpu.data 121833.333333                       # average LoadLockedReq mshr miss latency
system.cpu.dcache.LoadLockedReq_avg_mshr_miss_latency::total 121833.333333                       # average LoadLockedReq mshr miss latency
system.cpu.dcache.StoreCondReq_hits::.cpu.data          278                       # number of StoreCondReq hits
system.cpu.dcache.StoreCondReq_hits::total          278                       # number of StoreCondReq hits
system.cpu.dcache.StoreCondReq_accesses::.cpu.data          278                       # number of StoreCondReq accesses(hits+misses)
system.cpu.dcache.StoreCondReq_accesses::total          278                       # number of StoreCondReq accesses(hits+misses)
system.cpu.dcache.power_state.pwrStateResidencyTicks::UNDEFINED   1424858500                       # Cumulative time (in ticks) in various power states
system.cpu.dcache.tags.tagsinuse           973.260201                       # Cycle average of tags in use
system.cpu.dcache.tags.total_refs              892369                       # Total number of references to valid blocks.
system.cpu.dcache.tags.sampled_refs             26756                       # Sample count of references to valid blocks.
system.cpu.dcache.tags.avg_refs             33.352108                       # Average number of references to valid blocks.
system.cpu.dcache.tags.warmup_cycle            176500                       # Cycle when the warmup percentage was hit.
system.cpu.dcache.tags.occ_blocks::.cpu.data   973.260201                       # Average occupied blocks per requestor
system.cpu.dcache.tags.occ_percent::.cpu.data     0.950449                       # Average percentage of cache occupancy
system.cpu.dcache.tags.occ_percent::total     0.950449                       # Average percentage of cache occupancy
system.cpu.dcache.tags.occ_task_id_blocks::1024         1024                       # Occupied blocks per task id
system.cpu.dcache.tags.age_task_id_blocks_1024::0           68                       # Occupied blocks per task id
system.cpu.dcache.tags.age_task_id_blocks_1024::1          610                       # Occupied blocks per task id
system.cpu.dcache.tags.age_task_id_blocks_1024::2          346                       # Occupied blocks per task id
system.cpu.dcache.tags.occ_task_id_percent::1024            1                       # Percentage of cache occupancy per task id
system.cpu.dcache.tags.tag_accesses           1863366                       # Number of tag accesses
system.cpu.dcache.tags.data_accesses          1863366                       # Number of data accesses
system.cpu.dcache.tags.power_state.pwrStateResidencyTicks::UNDEFINED   1424858500                       # Cumulative time (in ticks) in various power states
system.cpu.power_state.pwrStateResidencyTicks::ON   1424858500                       # Cumulative time (in ticks) in various power states

---------- End Simulation Statistics   ----------
