
---------- Begin Simulation Statistics ----------
final_tick                                 3796211000                       # Number of ticks from beginning of simulation (restored from checkpoints and never reset)
host_inst_rate                                 185608                       # Simulator instruction rate (inst/s)
host_mem_usage                                 892336                       # Number of bytes of host memory used
host_op_rate                                   211180                       # Simulator op (including micro ops) rate (op/s)
host_seconds                                    53.88                       # Real time elapsed on the host
host_tick_rate                               70460568                       # Simulator tick rate (ticks/s)
sim_freq                                 1000000000000                       # Frequency of simulated ticks
sim_insts                                    10000007                       # Number of instructions simulated
sim_ops                                      11377760                       # Number of ops (including micro ops) simulated
sim_seconds                                  0.003796                       # Number of seconds simulated
sim_ticks                                  3796211000                       # Number of ticks simulated
system.cpu.branchPred.BTBCorrect                    0                       # Number of correct BTB predictions (this stat may not work properly.
system.cpu.branchPred.BTBHitPct             99.819674                       # BTB Hit Percentage
system.cpu.branchPred.BTBHits                 1039572                       # Number of BTB hits
system.cpu.branchPred.BTBLookups              1041450                       # Number of BTB lookups
system.cpu.branchPred.RASInCorrect                  2                       # Number of incorrect RAS predictions.
system.cpu.branchPred.condIncorrect             33674                       # Number of conditional branches incorrect
system.cpu.branchPred.condPredicted           1512561                       # Number of conditional branches predicted
system.cpu.branchPred.indirectHits                 90                       # Number of indirect target hits.
system.cpu.branchPred.indirectLookups             440                       # Number of indirect predictor lookups.
system.cpu.branchPred.indirectMisses              350                       # Number of indirect misses.
system.cpu.branchPred.lookups                 1884407                       # Number of BP lookups
system.cpu.branchPred.usedRAS                  156998                       # Number of times the RAS was used to get a target.
system.cpu.branchPredindirectMispredicted           94                       # Number of mispredicted indirect branches.
system.cpu.cc_regfile_reads                   2994003                       # number of cc regfile reads
system.cpu.cc_regfile_writes                  3000523                       # number of cc regfile writes
system.cpu.commit.amos                              0                       # Number of atomic instructions committed
system.cpu.commit.branchMispredicts             33230                       # The number of times a branch was mispredicted
system.cpu.commit.branches                    1493731                       # Number of branches committed
system.cpu.commit.bw_lim_events                923084                       # number cycles where commit BW limit reached
system.cpu.commit.commitNonSpecStalls             162                       # The number of times commit has been forced to stall to communicate backwards
system.cpu.commit.commitSquashedInsts         1947942                       # The number of squashed insts skipped by commit
system.cpu.commit.committedInsts             10030363                       # Number of instructions committed
system.cpu.commit.committedOps               11408116                       # Number of ops (including micro ops) committed
system.cpu.commit.committed_per_cycle::samples      7264759                       # Number of insts commited each cycle
system.cpu.commit.committed_per_cycle::mean     1.570336                       # Number of insts commited each cycle
system.cpu.commit.committed_per_cycle::stdev     2.764707                       # Number of insts commited each cycle
system.cpu.commit.committed_per_cycle::underflows            0      0.00%      0.00% # Number of insts commited each cycle
system.cpu.commit.committed_per_cycle::0      4644332     63.93%     63.93% # Number of insts commited each cycle
system.cpu.commit.committed_per_cycle::1       811716     11.17%     75.10% # Number of insts commited each cycle
system.cpu.commit.committed_per_cycle::2       245910      3.38%     78.49% # Number of insts commited each cycle
system.cpu.commit.committed_per_cycle::3       227003      3.12%     81.61% # Number of insts commited each cycle
system.cpu.commit.committed_per_cycle::4       193050      2.66%     84.27% # Number of insts commited each cycle
system.cpu.commit.committed_per_cycle::5        98885      1.36%     85.63% # Number of insts commited each cycle
system.cpu.commit.committed_per_cycle::6        73179      1.01%     86.64% # Number of insts commited each cycle
system.cpu.commit.committed_per_cycle::7        47600      0.66%     87.29% # Number of insts commited each cycle
system.cpu.commit.committed_per_cycle::8       923084     12.71%    100.00% # Number of insts commited each cycle
system.cpu.commit.committed_per_cycle::overflows            0      0.00%    100.00% # Number of insts commited each cycle
system.cpu.commit.committed_per_cycle::min_value            0                       # Number of insts commited each cycle
system.cpu.commit.committed_per_cycle::max_value            8                       # Number of insts commited each cycle
system.cpu.commit.committed_per_cycle::total      7264759                       # Number of insts commited each cycle
system.cpu.commit.fp_insts                          0                       # Number of committed floating point instructions.
system.cpu.commit.function_calls               109864                       # Number of function calls committed.
system.cpu.commit.int_insts                  10459677                       # Number of committed integer instructions.
system.cpu.commit.loads                       2765064                       # Number of loads committed
system.cpu.commit.membars                          71                       # Number of memory barriers committed
system.cpu.commit.op_class_0::No_OpClass            4      0.00%      0.00% # Class of committed instruction
system.cpu.commit.op_class_0::IntAlu          6770582     59.35%     59.35% # Class of committed instruction
system.cpu.commit.op_class_0::IntMult          207714      1.82%     61.17% # Class of committed instruction
system.cpu.commit.op_class_0::IntDiv                3      0.00%     61.17% # Class of committed instruction
system.cpu.commit.op_class_0::FloatAdd          20205      0.18%     61.35% # Class of committed instruction
system.cpu.commit.op_class_0::FloatCmp              1      0.00%     61.35% # Class of committed instruction
system.cpu.commit.op_class_0::FloatCvt          37098      0.33%     61.67% # Class of committed instruction
system.cpu.commit.op_class_0::FloatMult            10      0.00%     61.67% # Class of committed instruction
system.cpu.commit.op_class_0::FloatMultAcc           17      0.00%     61.67% # Class of committed instruction
system.cpu.commit.op_class_0::FloatDiv           3316      0.03%     61.70% # Class of committed instruction
system.cpu.commit.op_class_0::FloatMisc         20209      0.18%     61.88% # Class of committed instruction
system.cpu.commit.op_class_0::FloatSqrt             0      0.00%     61.88% # Class of committed instruction
system.cpu.commit.op_class_0::SimdAdd              18      0.00%     61.88% # Class of committed instruction
system.cpu.commit.op_class_0::SimdAddAcc            0      0.00%     61.88% # Class of committed instruction
system.cpu.commit.op_class_0::SimdAlu              18      0.00%     61.88% # Class of committed instruction
system.cpu.commit.op_class_0::SimdCmp              16      0.00%     61.88% # Class of committed instruction
system.cpu.commit.op_class_0::SimdCvt               4      0.00%     61.88% # Class of committed instruction
system.cpu.commit.op_class_0::SimdMisc             16      0.00%     61.88% # Class of committed instruction
system.cpu.commit.op_class_0::SimdMult              0      0.00%     61.88% # Class of committed instruction
system.cpu.commit.op_class_0::SimdMultAcc            0      0.00%     61.88% # Class of committed instruction
system.cpu.commit.op_class_0::SimdShift             0      0.00%     61.88% # Class of committed instruction
system.cpu.commit.op_class_0::SimdShiftAcc            0      0.00%     61.88% # Class of committed instruction
system.cpu.commit.op_class_0::SimdDiv               0      0.00%     61.88% # Class of committed instruction
system.cpu.commit.op_class_0::SimdSqrt              0      0.00%     61.88% # Class of committed instruction
system.cpu.commit.op_class_0::SimdFloatAdd            0      0.00%     61.88% # Class of committed instruction
system.cpu.commit.op_class_0::SimdFloatAlu            0      0.00%     61.88% # Class of committed instruction
system.cpu.commit.op_class_0::SimdFloatCmp            0      0.00%     61.88% # Class of committed instruction
system.cpu.commit.op_class_0::SimdFloatCvt            0      0.00%     61.88% # Class of committed instruction
system.cpu.commit.op_class_0::SimdFloatDiv            0      0.00%     61.88% # Class of committed instruction
system.cpu.commit.op_class_0::SimdFloatMisc            0      0.00%     61.88% # Class of committed instruction
system.cpu.commit.op_class_0::SimdFloatMult            0      0.00%     61.88% # Class of committed instruction
system.cpu.commit.op_class_0::SimdFloatMultAcc            0      0.00%     61.88% # Class of committed instruction
system.cpu.commit.op_class_0::SimdFloatSqrt            0      0.00%     61.88% # Class of committed instruction
system.cpu.commit.op_class_0::SimdReduceAdd            0      0.00%     61.88% # Class of committed instruction
system.cpu.commit.op_class_0::SimdReduceAlu            0      0.00%     61.88% # Class of committed instruction
system.cpu.commit.op_class_0::SimdReduceCmp            0      0.00%     61.88% # Class of committed instruction
system.cpu.commit.op_class_0::SimdFloatReduceAdd            0      0.00%     61.88% # Class of committed instruction
system.cpu.commit.op_class_0::SimdFloatReduceCmp            0      0.00%     61.88% # Class of committed instruction
system.cpu.commit.op_class_0::SimdAes               0      0.00%     61.88% # Class of committed instruction
system.cpu.commit.op_class_0::SimdAesMix            0      0.00%     61.88% # Class of committed instruction
system.cpu.commit.op_class_0::SimdSha1Hash            0      0.00%     61.88% # Class of committed instruction
system.cpu.commit.op_class_0::SimdSha1Hash2            0      0.00%     61.88% # Class of committed instruction
system.cpu.commit.op_class_0::SimdSha256Hash            0      0.00%     61.88% # Class of committed instruction
system.cpu.commit.op_class_0::SimdSha256Hash2            0      0.00%     61.88% # Class of committed instruction
system.cpu.commit.op_class_0::SimdShaSigma2            0      0.00%     61.88% # Class of committed instruction
system.cpu.commit.op_class_0::SimdShaSigma3            0      0.00%     61.88% # Class of committed instruction
system.cpu.commit.op_class_0::SimdPredAlu            0      0.00%     61.88% # Class of committed instruction
system.cpu.commit.op_class_0::MemRead         2765064     24.24%     86.12% # Class of committed instruction
system.cpu.commit.op_class_0::MemWrite        1583821     13.88%    100.00% # Class of committed instruction
system.cpu.commit.op_class_0::FloatMemRead            0      0.00%    100.00% # Class of committed instruction
system.cpu.commit.op_class_0::FloatMemWrite            0      0.00%    100.00% # Class of committed instruction
system.cpu.commit.op_class_0::IprAccess             0      0.00%    100.00% # Class of committed instruction
system.cpu.commit.op_class_0::InstPrefetch            0      0.00%    100.00% # Class of committed instruction
system.cpu.commit.op_class_0::total          11408116                       # Class of committed instruction
system.cpu.commit.refs                        4348885                       # Number of memory references committed
system.cpu.commit.swp_count                         0                       # Number of s/w prefetches committed
system.cpu.commit.vec_insts                     81296                       # Number of committed Vector instructions.
system.cpu.committedInsts                    10000007                       # Number of Instructions Simulated
system.cpu.committedOps                      11377760                       # Number of Ops (including micro ops) Simulated
system.cpu.cpi                               0.759242                       # CPI: Cycles Per Instruction
system.cpu.cpi_total                         0.759242                       # CPI: Total CPI of All Threads
system.cpu.decode.BlockedCycles               4391164                       # Number of cycles decode is blocked
system.cpu.decode.BranchMispred                   463                       # Number of times decode detected a branch misprediction
system.cpu.decode.BranchResolved              1006540                       # Number of times decode resolved a branch
system.cpu.decode.DecodedInsts               13759810                       # Number of instructions handled by decode
system.cpu.decode.IdleCycles                   860830                       # Number of cycles decode is idle
system.cpu.decode.RunCycles                   2000678                       # Number of cycles decode is running
system.cpu.decode.SquashCycles                  36102                       # Number of cycles decode is squashing
system.cpu.decode.SquashedInsts                  1616                       # Number of squashed instructions handled by decode
system.cpu.decode.UnblockCycles                236473                       # Number of cycles decode is unblocking
system.cpu.dtb.accesses                             0                       # DTB accesses
system.cpu.dtb.align_faults                         0                       # Number of TLB faults due to alignment restrictions
system.cpu.dtb.domain_faults                        0                       # Number of TLB faults due to domain restrictions
system.cpu.dtb.flush_entries                        0                       # Number of entries that have been flushed from TLB
system.cpu.dtb.flush_tlb                            2                       # Number of times complete TLB was flushed
system.cpu.dtb.flush_tlb_asid                       0                       # Number of times TLB was flushed by ASID
system.cpu.dtb.flush_tlb_mva                        0                       # Number of times TLB was flushed by MVA
system.cpu.dtb.flush_tlb_mva_asid                   0                       # Number of times TLB was flushed by MVA & ASID
system.cpu.dtb.hits                                 0                       # DTB hits
system.cpu.dtb.inst_accesses                        0                       # ITB inst accesses
system.cpu.dtb.inst_hits                            0                       # ITB inst hits
system.cpu.dtb.inst_misses                          0                       # ITB inst misses
system.cpu.dtb.misses                               0                       # DTB misses
system.cpu.dtb.perms_faults                         0                       # Number of TLB faults due to permissions restrictions
system.cpu.dtb.prefetch_faults                      0                       # Number of TLB faults due to prefetch
system.cpu.dtb.read_accesses                        0                       # DTB read accesses
system.cpu.dtb.read_hits                            0                       # DTB read hits
system.cpu.dtb.read_misses                          0                       # DTB read misses
system.cpu.dtb.stage2_mmu.stage2_tlb.accesses            0                       # DTB accesses
system.cpu.dtb.stage2_mmu.stage2_tlb.align_faults            0                       # Number of TLB faults due to alignment restrictions
system.cpu.dtb.stage2_mmu.stage2_tlb.domain_faults            0                       # Number of TLB faults due to domain restrictions
system.cpu.dtb.stage2_mmu.stage2_tlb.flush_entries            0                       # Number of entries that have been flushed from TLB
system.cpu.dtb.stage2_mmu.stage2_tlb.flush_tlb            0                       # Number of times complete TLB was flushed
system.cpu.dtb.stage2_mmu.stage2_tlb.flush_tlb_asid            0                       # Number of times TLB was flushed by ASID
system.cpu.dtb.stage2_mmu.stage2_tlb.flush_tlb_mva            0                       # Number of times TLB was flushed by MVA
system.cpu.dtb.stage2_mmu.stage2_tlb.flush_tlb_mva_asid            0                       # Number of times TLB was flushed by MVA & ASID
system.cpu.dtb.stage2_mmu.stage2_tlb.hits            0                       # DTB hits
system.cpu.dtb.stage2_mmu.stage2_tlb.inst_accesses            0                       # ITB inst accesses
system.cpu.dtb.stage2_mmu.stage2_tlb.inst_hits            0                       # ITB inst hits
system.cpu.dtb.stage2_mmu.stage2_tlb.inst_misses            0                       # ITB inst misses
system.cpu.dtb.stage2_mmu.stage2_tlb.misses            0                       # DTB misses
system.cpu.dtb.stage2_mmu.stage2_tlb.perms_faults            0                       # Number of TLB faults due to permissions restrictions
system.cpu.dtb.stage2_mmu.stage2_tlb.prefetch_faults            0                       # Number of TLB faults due to prefetch
system.cpu.dtb.stage2_mmu.stage2_tlb.read_accesses            0                       # DTB read accesses
system.cpu.dtb.stage2_mmu.stage2_tlb.read_hits            0                       # DTB read hits
system.cpu.dtb.stage2_mmu.stage2_tlb.read_misses            0                       # DTB read misses
system.cpu.dtb.stage2_mmu.stage2_tlb.walker.walkRequestOrigin_Requested::Data            0                       # Table walker requests started/completed, data/inst
system.cpu.dtb.stage2_mmu.stage2_tlb.walker.walkRequestOrigin_Requested::Inst            0                       # Table walker requests started/completed, data/inst
system.cpu.dtb.stage2_mmu.stage2_tlb.walker.walkRequestOrigin_Requested::total            0                       # Table walker requests started/completed, data/inst
system.cpu.dtb.stage2_mmu.stage2_tlb.walker.walkRequestOrigin_Completed::Data            0                       # Table walker requests started/completed, data/inst
system.cpu.dtb.stage2_mmu.stage2_tlb.walker.walkRequestOrigin_Completed::Inst            0                       # Table walker requests started/completed, data/inst
system.cpu.dtb.stage2_mmu.stage2_tlb.walker.walkRequestOrigin_Completed::total            0                       # Table walker requests started/completed, data/inst
system.cpu.dtb.stage2_mmu.stage2_tlb.walker.walkRequestOrigin::total            0                       # Table walker requests started/completed, data/inst
system.cpu.dtb.stage2_mmu.stage2_tlb.walker.walks            0                       # Table walker walks requested
system.cpu.dtb.stage2_mmu.stage2_tlb.write_accesses            0                       # DTB write accesses
system.cpu.dtb.stage2_mmu.stage2_tlb.write_hits            0                       # DTB write hits
system.cpu.dtb.stage2_mmu.stage2_tlb.write_misses            0                       # DTB write misses
system.cpu.dtb.walker.walkRequestOrigin_Requested::Data            0                       # Table walker requests started/completed, data/inst
system.cpu.dtb.walker.walkRequestOrigin_Requested::Inst            0                       # Table walker requests started/completed, data/inst
system.cpu.dtb.walker.walkRequestOrigin_Requested::total            0                       # Table walker requests started/completed, data/inst
system.cpu.dtb.walker.walkRequestOrigin_Completed::Data            0                       # Table walker requests started/completed, data/inst
system.cpu.dtb.walker.walkRequestOrigin_Completed::Inst            0                       # Table walker requests started/completed, data/inst
system.cpu.dtb.walker.walkRequestOrigin_Completed::total            0                       # Table walker requests started/completed, data/inst
system.cpu.dtb.walker.walkRequestOrigin::total            0                       # Table walker requests started/completed, data/inst
system.cpu.dtb.walker.walks                         0                       # Table walker walks requested
system.cpu.dtb.write_accesses                       0                       # DTB write accesses
system.cpu.dtb.write_hits                           0                       # DTB write hits
system.cpu.dtb.write_misses                         0                       # DTB write misses
system.cpu.fetch.Branches                     1884407                       # Number of branches that fetch encountered
system.cpu.fetch.CacheLines                   1192507                       # Number of cache lines fetched
system.cpu.fetch.Cycles                       6243110                       # Number of cycles fetch has run and was not squashing or blocked
system.cpu.fetch.IcacheSquashes                 10979                       # Number of outstanding Icache misses that were squashed
system.cpu.fetch.Insts                       12398622                       # Number of instructions fetch has processed
system.cpu.fetch.SquashCycles                   73092                       # Number of cycles fetch has spent squashing
system.cpu.fetch.branchRate                  0.248196                       # Number of branch fetches per cycle
system.cpu.fetch.icacheStallCycles            1245591                       # Number of cycles fetch is stalled on an Icache miss
system.cpu.fetch.predictedBranches            1196660                       # Number of branches that fetch has predicted taken
system.cpu.fetch.rate                        1.633026                       # Number of inst fetches per cycle
system.cpu.fetch.rateDist::samples            7525247                       # Number of instructions fetched each cycle (Total)
system.cpu.fetch.rateDist::mean              1.879151                       # Number of instructions fetched each cycle (Total)
system.cpu.fetch.rateDist::stdev             2.983902                       # Number of instructions fetched each cycle (Total)
system.cpu.fetch.rateDist::underflows               0      0.00%      0.00% # Number of instructions fetched each cycle (Total)
system.cpu.fetch.rateDist::0                  4801200     63.80%     63.80% # Number of instructions fetched each cycle (Total)
system.cpu.fetch.rateDist::1                   244267      3.25%     67.05% # Number of instructions fetched each cycle (Total)
system.cpu.fetch.rateDist::2                   483079      6.42%     73.47% # Number of instructions fetched each cycle (Total)
system.cpu.fetch.rateDist::3                   273227      3.63%     77.10% # Number of instructions fetched each cycle (Total)
system.cpu.fetch.rateDist::4                   211094      2.81%     79.90% # Number of instructions fetched each cycle (Total)
system.cpu.fetch.rateDist::5                   177718      2.36%     82.26% # Number of instructions fetched each cycle (Total)
system.cpu.fetch.rateDist::6                    95251      1.27%     83.53% # Number of instructions fetched each cycle (Total)
system.cpu.fetch.rateDist::7                   108793      1.45%     84.98% # Number of instructions fetched each cycle (Total)
system.cpu.fetch.rateDist::8                  1130618     15.02%    100.00% # Number of instructions fetched each cycle (Total)
system.cpu.fetch.rateDist::overflows                0      0.00%    100.00% # Number of instructions fetched each cycle (Total)
system.cpu.fetch.rateDist::min_value                0                       # Number of instructions fetched each cycle (Total)
system.cpu.fetch.rateDist::max_value                8                       # Number of instructions fetched each cycle (Total)
system.cpu.fetch.rateDist::total              7525247                       # Number of instructions fetched each cycle (Total)
system.cpu.idleCycles                           67176                       # Total number of cycles that the CPU has spent unscheduled due to idling
system.cpu.iew.branchMispredicts                35465                       # Number of branch mispredicts detected at execute
system.cpu.iew.exec_branches                  1636217                       # Number of branches executed
system.cpu.iew.exec_nop                         38484                       # number of nop insts executed
system.cpu.iew.exec_rate                     1.670481                       # Inst execution rate
system.cpu.iew.exec_refs                      4900691                       # number of memory reference insts executed
system.cpu.iew.exec_stores                    1738404                       # Number of stores executed
system.cpu.iew.exec_swp                             0                       # number of swp insts executed
system.cpu.iew.iewBlockCycles                  335653                       # Number of cycles IEW is blocking
system.cpu.iew.iewDispLoadInsts               3257859                       # Number of dispatched load instructions
system.cpu.iew.iewDispNonSpecInsts                203                       # Number of dispatched non-speculative instructions
system.cpu.iew.iewDispSquashedInsts              1075                       # Number of squashed instructions skipped by dispatch
system.cpu.iew.iewDispStoreInsts              1836989                       # Number of dispatched store instructions
system.cpu.iew.iewDispatchedInsts            13397989                       # Number of instructions dispatched to IQ
system.cpu.iew.iewExecLoadInsts               3162287                       # Number of load instructions executed
system.cpu.iew.iewExecSquashedInsts             57329                       # Number of squashed instructions skipped in execute
system.cpu.iew.iewExecutedInsts              12683002                       # Number of executed instructions
system.cpu.iew.iewIQFullEvents                   2264                       # Number of times the IQ has become full, causing a stall
system.cpu.iew.iewIdleCycles                        0                       # Number of cycles IEW is idle
system.cpu.iew.iewLSQFullEvents                287542                       # Number of times the LSQ has become full, causing a stall
system.cpu.iew.iewSquashCycles                  36102                       # Number of cycles IEW is squashing
system.cpu.iew.iewUnblockCycles                290097                       # Number of cycles IEW is unblocking
system.cpu.iew.lsq.thread0.blockedLoads             0                       # Number of blocked loads due to partial load-store forwarding
system.cpu.iew.lsq.thread0.cacheBlocked          2746                       # Number of times an access to memory failed due to the cache being blocked
system.cpu.iew.lsq.thread0.forwLoads            37104                       # Number of loads that had data forwarded from stores
system.cpu.iew.lsq.thread0.ignoredResponses          115                       # Number of memory responses ignored because the instruction is squashed
system.cpu.iew.lsq.thread0.invAddrLoads             0                       # Number of loads ignored due to an invalid address
system.cpu.iew.lsq.thread0.invAddrSwpfs             0                       # Number of software prefetches ignored due to an invalid address
system.cpu.iew.lsq.thread0.memOrderViolation          172                       # Number of memory ordering violations
system.cpu.iew.lsq.thread0.rescheduledLoads       166110                       # Number of loads that were rescheduled
system.cpu.iew.lsq.thread0.squashedLoads       492787                       # Number of loads squashed
system.cpu.iew.lsq.thread0.squashedStores       253165                       # Number of stores squashed
system.cpu.iew.memOrderViolationEvents            172                       # Number of memory order violations
system.cpu.iew.predictedNotTakenIncorrect        16795                       # Number of branches that were predicted not taken incorrectly
system.cpu.iew.predictedTakenIncorrect          18670                       # Number of branches that were predicted taken incorrectly
system.cpu.iew.wb_consumers                  13048034                       # num instructions consuming a value
system.cpu.iew.wb_count                      12456555                       # cumulative count of insts written-back
system.cpu.iew.wb_fanout                     0.600269                       # average fanout of values written-back
system.cpu.iew.wb_producers                   7832334                       # num instructions producing a value
system.cpu.iew.wb_rate                       1.640656                       # insts written-back per cycle
system.cpu.iew.wb_sent                       12497135                       # cumulative count of insts sent to commit
system.cpu.int_regfile_reads                 16528233                       # number of integer regfile reads
system.cpu.int_regfile_writes                 9624599                       # number of integer regfile writes
system.cpu.ipc                               1.317104                       # IPC: Instructions Per Cycle
system.cpu.ipc_total                         1.317104                       # IPC: Total IPC of All Threads
system.cpu.iq.FU_type_0::No_OpClass                 6      0.00%      0.00% # Type of FU issued
system.cpu.iq.FU_type_0::IntAlu               7454240     58.51%     58.51% # Type of FU issued
system.cpu.iq.FU_type_0::IntMult               244227      1.92%     60.43% # Type of FU issued
system.cpu.iq.FU_type_0::IntDiv                     3      0.00%     60.43% # Type of FU issued
system.cpu.iq.FU_type_0::FloatAdd               26589      0.21%     60.63% # Type of FU issued
system.cpu.iq.FU_type_0::FloatCmp                   1      0.00%     60.63% # Type of FU issued
system.cpu.iq.FU_type_0::FloatCvt               44816      0.35%     60.99% # Type of FU issued
system.cpu.iq.FU_type_0::FloatMult                 10      0.00%     60.99% # Type of FU issued
system.cpu.iq.FU_type_0::FloatMultAcc              17      0.00%     60.99% # Type of FU issued
system.cpu.iq.FU_type_0::FloatDiv                4704      0.04%     61.02% # Type of FU issued
system.cpu.iq.FU_type_0::FloatMisc              32802      0.26%     61.28% # Type of FU issued
system.cpu.iq.FU_type_0::FloatSqrt                  0      0.00%     61.28% # Type of FU issued
system.cpu.iq.FU_type_0::SimdAdd                   24      0.00%     61.28% # Type of FU issued
system.cpu.iq.FU_type_0::SimdAddAcc                 0      0.00%     61.28% # Type of FU issued
system.cpu.iq.FU_type_0::SimdAlu                   22      0.00%     61.28% # Type of FU issued
system.cpu.iq.FU_type_0::SimdCmp                   23      0.00%     61.28% # Type of FU issued
system.cpu.iq.FU_type_0::SimdCvt                    4      0.00%     61.28% # Type of FU issued
system.cpu.iq.FU_type_0::SimdMisc                  18      0.00%     61.28% # Type of FU issued
system.cpu.iq.FU_type_0::SimdMult                   0      0.00%     61.28% # Type of FU issued
system.cpu.iq.FU_type_0::SimdMultAcc                0      0.00%     61.28% # Type of FU issued
system.cpu.iq.FU_type_0::SimdShift                  0      0.00%     61.28% # Type of FU issued
system.cpu.iq.FU_type_0::SimdShiftAcc               0      0.00%     61.28% # Type of FU issued
system.cpu.iq.FU_type_0::SimdDiv                    0      0.00%     61.28% # Type of FU issued
system.cpu.iq.FU_type_0::SimdSqrt                   0      0.00%     61.28% # Type of FU issued
system.cpu.iq.FU_type_0::SimdFloatAdd               0      0.00%     61.28% # Type of FU issued
system.cpu.iq.FU_type_0::SimdFloatAlu               0      0.00%     61.28% # Type of FU issued
system.cpu.iq.FU_type_0::SimdFloatCmp               0      0.00%     61.28% # Type of FU issued
system.cpu.iq.FU_type_0::SimdFloatCvt               0      0.00%     61.28% # Type of FU issued
system.cpu.iq.FU_type_0::SimdFloatDiv               0      0.00%     61.28% # Type of FU issued
system.cpu.iq.FU_type_0::SimdFloatMisc              0      0.00%     61.28% # Type of FU issued
system.cpu.iq.FU_type_0::SimdFloatMult              0      0.00%     61.28% # Type of FU issued
system.cpu.iq.FU_type_0::SimdFloatMultAcc            0      0.00%     61.28% # Type of FU issued
system.cpu.iq.FU_type_0::SimdFloatSqrt              0      0.00%     61.28% # Type of FU issued
system.cpu.iq.FU_type_0::SimdReduceAdd              0      0.00%     61.28% # Type of FU issued
system.cpu.iq.FU_type_0::SimdReduceAlu              0      0.00%     61.28% # Type of FU issued
system.cpu.iq.FU_type_0::SimdReduceCmp              0      0.00%     61.28% # Type of FU issued
system.cpu.iq.FU_type_0::SimdFloatReduceAdd            0      0.00%     61.28% # Type of FU issued
system.cpu.iq.FU_type_0::SimdFloatReduceCmp            0      0.00%     61.28% # Type of FU issued
system.cpu.iq.FU_type_0::SimdAes                    0      0.00%     61.28% # Type of FU issued
system.cpu.iq.FU_type_0::SimdAesMix                 0      0.00%     61.28% # Type of FU issued
system.cpu.iq.FU_type_0::SimdSha1Hash               0      0.00%     61.28% # Type of FU issued
system.cpu.iq.FU_type_0::SimdSha1Hash2              0      0.00%     61.28% # Type of FU issued
system.cpu.iq.FU_type_0::SimdSha256Hash             0      0.00%     61.28% # Type of FU issued
system.cpu.iq.FU_type_0::SimdSha256Hash2            0      0.00%     61.28% # Type of FU issued
system.cpu.iq.FU_type_0::SimdShaSigma2              0      0.00%     61.28% # Type of FU issued
system.cpu.iq.FU_type_0::SimdShaSigma3              0      0.00%     61.28% # Type of FU issued
system.cpu.iq.FU_type_0::SimdPredAlu                0      0.00%     61.28% # Type of FU issued
system.cpu.iq.FU_type_0::MemRead              3185643     25.00%     86.29% # Type of FU issued
system.cpu.iq.FU_type_0::MemWrite             1747186     13.71%    100.00% # Type of FU issued
system.cpu.iq.FU_type_0::FloatMemRead               0      0.00%    100.00% # Type of FU issued
system.cpu.iq.FU_type_0::FloatMemWrite              0      0.00%    100.00% # Type of FU issued
system.cpu.iq.FU_type_0::IprAccess                  0      0.00%    100.00% # Type of FU issued
system.cpu.iq.FU_type_0::InstPrefetch               0      0.00%    100.00% # Type of FU issued
system.cpu.iq.FU_type_0::total               12740335                       # Type of FU issued
system.cpu.iq.fp_alu_accesses                       0                       # Number of floating point alu accesses
system.cpu.iq.fp_inst_queue_reads                   0                       # Number of floating instruction queue reads
system.cpu.iq.fp_inst_queue_wakeup_accesses            0                       # Number of floating instruction queue wakeup accesses
system.cpu.iq.fp_inst_queue_writes                  0                       # Number of floating instruction queue writes
system.cpu.iq.fu_busy_cnt                      217206                       # FU busy when requested
system.cpu.iq.fu_busy_rate                   0.017049                       # FU busy rate (busy events/executed inst)
system.cpu.iq.fu_full::No_OpClass                   0      0.00%      0.00% # attempts to use FU when none available
system.cpu.iq.fu_full::IntAlu                   52861     24.34%     24.34% # attempts to use FU when none available
system.cpu.iq.fu_full::IntMult                    108      0.05%     24.39% # attempts to use FU when none available
system.cpu.iq.fu_full::IntDiv                       0      0.00%     24.39% # attempts to use FU when none available
system.cpu.iq.fu_full::FloatAdd                     0      0.00%     24.39% # attempts to use FU when none available
system.cpu.iq.fu_full::FloatCmp                     0      0.00%     24.39% # attempts to use FU when none available
system.cpu.iq.fu_full::FloatCvt                     0      0.00%     24.39% # attempts to use FU when none available
system.cpu.iq.fu_full::FloatMult                   16      0.01%     24.39% # attempts to use FU when none available
system.cpu.iq.fu_full::FloatMultAcc                 0      0.00%     24.39% # attempts to use FU when none available
system.cpu.iq.fu_full::FloatDiv                    22      0.01%     24.40% # attempts to use FU when none available
system.cpu.iq.fu_full::FloatMisc                   92      0.04%     24.45% # attempts to use FU when none available
system.cpu.iq.fu_full::FloatSqrt                    0      0.00%     24.45% # attempts to use FU when none available
system.cpu.iq.fu_full::SimdAdd                      0      0.00%     24.45% # attempts to use FU when none available
system.cpu.iq.fu_full::SimdAddAcc                   0      0.00%     24.45% # attempts to use FU when none available
system.cpu.iq.fu_full::SimdAlu                      1      0.00%     24.45% # attempts to use FU when none available
system.cpu.iq.fu_full::SimdCmp                      2      0.00%     24.45% # attempts to use FU when none available
system.cpu.iq.fu_full::SimdCvt                      0      0.00%     24.45% # attempts to use FU when none available
system.cpu.iq.fu_full::SimdMisc                     0      0.00%     24.45% # attempts to use FU when none available
system.cpu.iq.fu_full::SimdMult                     0      0.00%     24.45% # attempts to use FU when none available
system.cpu.iq.fu_full::SimdMultAcc                  0      0.00%     24.45% # attempts to use FU when none available
system.cpu.iq.fu_full::SimdShift                    0      0.00%     24.45% # attempts to use FU when none available
system.cpu.iq.fu_full::SimdShiftAcc                 0      0.00%     24.45% # attempts to use FU when none available
system.cpu.iq.fu_full::SimdDiv                      0      0.00%     24.45% # attempts to use FU when none available
system.cpu.iq.fu_full::SimdSqrt                     0      0.00%     24.45% # attempts to use FU when none available
system.cpu.iq.fu_full::SimdFloatAdd                 0      0.00%     24.45% # attempts to use FU when none available
system.cpu.iq.fu_full::SimdFloatAlu                 0      0.00%     24.45% # attempts to use FU when none available
system.cpu.iq.fu_full::SimdFloatCmp                 0      0.00%     24.45% # attempts to use FU when none available
system.cpu.iq.fu_full::SimdFloatCvt                 0      0.00%     24.45% # attempts to use FU when none available
system.cpu.iq.fu_full::SimdFloatDiv                 0      0.00%     24.45% # attempts to use FU when none available
system.cpu.iq.fu_full::SimdFloatMisc                0      0.00%     24.45% # attempts to use FU when none available
system.cpu.iq.fu_full::SimdFloatMult                0      0.00%     24.45% # attempts to use FU when none available
system.cpu.iq.fu_full::SimdFloatMultAcc             0      0.00%     24.45% # attempts to use FU when none available
system.cpu.iq.fu_full::SimdFloatSqrt                0      0.00%     24.45% # attempts to use FU when none available
system.cpu.iq.fu_full::SimdReduceAdd                0      0.00%     24.45% # attempts to use FU when none available
system.cpu.iq.fu_full::SimdReduceAlu                0      0.00%     24.45% # attempts to use FU when none available
system.cpu.iq.fu_full::SimdReduceCmp                0      0.00%     24.45% # attempts to use FU when none available
system.cpu.iq.fu_full::SimdFloatReduceAdd            0      0.00%     24.45% # attempts to use FU when none available
system.cpu.iq.fu_full::SimdFloatReduceCmp            0      0.00%     24.45% # attempts to use FU when none available
system.cpu.iq.fu_full::SimdAes                      0      0.00%     24.45% # attempts to use FU when none available
system.cpu.iq.fu_full::SimdAesMix                   0      0.00%     24.45% # attempts to use FU when none available
system.cpu.iq.fu_full::SimdSha1Hash                 0      0.00%     24.45% # attempts to use FU when none available
system.cpu.iq.fu_full::SimdSha1Hash2                0      0.00%     24.45% # attempts to use FU when none available
system.cpu.iq.fu_full::SimdSha256Hash               0      0.00%     24.45% # attempts to use FU when none available
system.cpu.iq.fu_full::SimdSha256Hash2              0      0.00%     24.45% # attempts to use FU when none available
system.cpu.iq.fu_full::SimdShaSigma2                0      0.00%     24.45% # attempts to use FU when none available
system.cpu.iq.fu_full::SimdShaSigma3                0      0.00%     24.45% # attempts to use FU when none available
system.cpu.iq.fu_full::SimdPredAlu                  0      0.00%     24.45% # attempts to use FU when none available
system.cpu.iq.fu_full::MemRead                 116432     53.60%     78.05% # attempts to use FU when none available
system.cpu.iq.fu_full::MemWrite                 47672     21.95%    100.00% # attempts to use FU when none available
system.cpu.iq.fu_full::FloatMemRead                 0      0.00%    100.00% # attempts to use FU when none available
system.cpu.iq.fu_full::FloatMemWrite                0      0.00%    100.00% # attempts to use FU when none available
system.cpu.iq.fu_full::IprAccess                    0      0.00%    100.00% # attempts to use FU when none available
system.cpu.iq.fu_full::InstPrefetch                 0      0.00%    100.00% # attempts to use FU when none available
system.cpu.iq.int_alu_accesses               12847715                       # Number of integer alu accesses
system.cpu.iq.int_inst_queue_reads           33020629                       # Number of integer instruction queue reads
system.cpu.iq.int_inst_queue_wakeup_accesses     12349121                       # Number of integer instruction queue wakeup accesses
system.cpu.iq.int_inst_queue_writes          15162621                       # Number of integer instruction queue writes
system.cpu.iq.iqInstsAdded                   13359302                       # Number of instructions added to the IQ (excludes non-spec)
system.cpu.iq.iqInstsIssued                  12740335                       # Number of instructions issued
system.cpu.iq.iqNonSpecInstsAdded                 203                       # Number of non-speculative instructions added to the IQ
system.cpu.iq.iqSquashedInstsExamined         1981705                       # Number of squashed instructions iterated over during squash; mainly for profiling
system.cpu.iq.iqSquashedInstsIssued             17086                       # Number of squashed instructions issued
system.cpu.iq.iqSquashedNonSpecRemoved             41                       # Number of squashed non-spec instructions that were removed
system.cpu.iq.iqSquashedOperandsExamined      1660881                       # Number of squashed operands that are examined and possibly removed from graph
system.cpu.iq.issued_per_cycle::samples       7525247                       # Number of insts issued each cycle
system.cpu.iq.issued_per_cycle::mean         1.693012                       # Number of insts issued each cycle
system.cpu.iq.issued_per_cycle::stdev        2.381651                       # Number of insts issued each cycle
system.cpu.iq.issued_per_cycle::underflows            0      0.00%      0.00% # Number of insts issued each cycle
system.cpu.iq.issued_per_cycle::0             4180699     55.56%     55.56% # Number of insts issued each cycle
system.cpu.iq.issued_per_cycle::1              555195      7.38%     62.93% # Number of insts issued each cycle
system.cpu.iq.issued_per_cycle::2              596341      7.92%     70.86% # Number of insts issued each cycle
system.cpu.iq.issued_per_cycle::3              555506      7.38%     78.24% # Number of insts issued each cycle
system.cpu.iq.issued_per_cycle::4              426915      5.67%     83.91% # Number of insts issued each cycle
system.cpu.iq.issued_per_cycle::5              397301      5.28%     89.19% # Number of insts issued each cycle
system.cpu.iq.issued_per_cycle::6              309520      4.11%     93.31% # Number of insts issued each cycle
system.cpu.iq.issued_per_cycle::7              255505      3.40%     96.70% # Number of insts issued each cycle
system.cpu.iq.issued_per_cycle::8              248265      3.30%    100.00% # Number of insts issued each cycle
system.cpu.iq.issued_per_cycle::overflows            0      0.00%    100.00% # Number of insts issued each cycle
system.cpu.iq.issued_per_cycle::min_value            0                       # Number of insts issued each cycle
system.cpu.iq.issued_per_cycle::max_value            8                       # Number of insts issued each cycle
system.cpu.iq.issued_per_cycle::total         7525247                       # Number of insts issued each cycle
system.cpu.iq.rate                           1.678033                       # Inst issue rate
system.cpu.iq.vec_alu_accesses                 109820                       # Number of vector alu accesses
system.cpu.iq.vec_inst_queue_reads             219576                       # Number of vector instruction queue reads
system.cpu.iq.vec_inst_queue_wakeup_accesses       107434                       # Number of vector instruction queue wakeup accesses
system.cpu.iq.vec_inst_queue_writes            178756                       # Number of vector instruction queue writes
system.cpu.itb.accesses                             0                       # DTB accesses
system.cpu.itb.align_faults                         0                       # Number of TLB faults due to alignment restrictions
system.cpu.itb.domain_faults                        0                       # Number of TLB faults due to domain restrictions
system.cpu.itb.flush_entries                        0                       # Number of entries that have been flushed from TLB
system.cpu.itb.flush_tlb                            2                       # Number of times complete TLB was flushed
system.cpu.itb.flush_tlb_asid                       0                       # Number of times TLB was flushed by ASID
system.cpu.itb.flush_tlb_mva                        0                       # Number of times TLB was flushed by MVA
system.cpu.itb.flush_tlb_mva_asid                   0                       # Number of times TLB was flushed by MVA & ASID
system.cpu.itb.hits                                 0                       # DTB hits
system.cpu.itb.inst_accesses                        0                       # ITB inst accesses
system.cpu.itb.inst_hits                            0                       # ITB inst hits
system.cpu.itb.inst_misses                          0                       # ITB inst misses
system.cpu.itb.misses                               0                       # DTB misses
system.cpu.itb.perms_faults                         0                       # Number of TLB faults due to permissions restrictions
system.cpu.itb.prefetch_faults                      0                       # Number of TLB faults due to prefetch
system.cpu.itb.read_accesses                        0                       # DTB read accesses
system.cpu.itb.read_hits                            0                       # DTB read hits
system.cpu.itb.read_misses                          0                       # DTB read misses
system.cpu.itb.stage2_mmu.stage2_tlb.accesses            0                       # DTB accesses
system.cpu.itb.stage2_mmu.stage2_tlb.align_faults            0                       # Number of TLB faults due to alignment restrictions
system.cpu.itb.stage2_mmu.stage2_tlb.domain_faults            0                       # Number of TLB faults due to domain restrictions
system.cpu.itb.stage2_mmu.stage2_tlb.flush_entries            0                       # Number of entries that have been flushed from TLB
system.cpu.itb.stage2_mmu.stage2_tlb.flush_tlb            0                       # Number of times complete TLB was flushed
system.cpu.itb.stage2_mmu.stage2_tlb.flush_tlb_asid            0                       # Number of times TLB was flushed by ASID
system.cpu.itb.stage2_mmu.stage2_tlb.flush_tlb_mva            0                       # Number of times TLB was flushed by MVA
system.cpu.itb.stage2_mmu.stage2_tlb.flush_tlb_mva_asid            0                       # Number of times TLB was flushed by MVA & ASID
system.cpu.itb.stage2_mmu.stage2_tlb.hits            0                       # DTB hits
system.cpu.itb.stage2_mmu.stage2_tlb.inst_accesses            0                       # ITB inst accesses
system.cpu.itb.stage2_mmu.stage2_tlb.inst_hits            0                       # ITB inst hits
system.cpu.itb.stage2_mmu.stage2_tlb.inst_misses            0                       # ITB inst misses
system.cpu.itb.stage2_mmu.stage2_tlb.misses            0                       # DTB misses
system.cpu.itb.stage2_mmu.stage2_tlb.perms_faults            0                       # Number of TLB faults due to permissions restrictions
system.cpu.itb.stage2_mmu.stage2_tlb.prefetch_faults            0                       # Number of TLB faults due to prefetch
system.cpu.itb.stage2_mmu.stage2_tlb.read_accesses            0                       # DTB read accesses
system.cpu.itb.stage2_mmu.stage2_tlb.read_hits            0                       # DTB read hits
system.cpu.itb.stage2_mmu.stage2_tlb.read_misses            0                       # DTB read misses
system.cpu.itb.stage2_mmu.stage2_tlb.walker.walkRequestOrigin_Requested::Data            0                       # Table walker requests started/completed, data/inst
system.cpu.itb.stage2_mmu.stage2_tlb.walker.walkRequestOrigin_Requested::Inst            0                       # Table walker requests started/completed, data/inst
system.cpu.itb.stage2_mmu.stage2_tlb.walker.walkRequestOrigin_Requested::total            0                       # Table walker requests started/completed, data/inst
system.cpu.itb.stage2_mmu.stage2_tlb.walker.walkRequestOrigin_Completed::Data            0                       # Table walker requests started/completed, data/inst
system.cpu.itb.stage2_mmu.stage2_tlb.walker.walkRequestOrigin_Completed::Inst            0                       # Table walker requests started/completed, data/inst
system.cpu.itb.stage2_mmu.stage2_tlb.walker.walkRequestOrigin_Completed::total            0                       # Table walker requests started/completed, data/inst
system.cpu.itb.stage2_mmu.stage2_tlb.walker.walkRequestOrigin::total            0                       # Table walker requests started/completed, data/inst
system.cpu.itb.stage2_mmu.stage2_tlb.walker.walks            0                       # Table walker walks requested
system.cpu.itb.stage2_mmu.stage2_tlb.write_accesses            0                       # DTB write accesses
system.cpu.itb.stage2_mmu.stage2_tlb.write_hits            0                       # DTB write hits
system.cpu.itb.stage2_mmu.stage2_tlb.write_misses            0                       # DTB write misses
system.cpu.itb.walker.walkRequestOrigin_Requested::Data            0                       # Table walker requests started/completed, data/inst
system.cpu.itb.walker.walkRequestOrigin_Requested::Inst            0                       # Table walker requests started/completed, data/inst
system.cpu.itb.walker.walkRequestOrigin_Requested::total            0                       # Table walker requests started/completed, data/inst
system.cpu.itb.walker.walkRequestOrigin_Completed::Data            0                       # Table walker requests started/completed, data/inst
system.cpu.itb.walker.walkRequestOrigin_Completed::Inst            0                       # Table walker requests started/completed, data/inst
system.cpu.itb.walker.walkRequestOrigin_Completed::total            0                       # Table walker requests started/completed, data/inst
system.cpu.itb.walker.walkRequestOrigin::total            0                       # Table walker requests started/completed, data/inst
system.cpu.itb.walker.walks                         0                       # Table walker walks requested
system.cpu.itb.write_accesses                       0                       # DTB write accesses
system.cpu.itb.write_hits                           0                       # DTB write hits
system.cpu.itb.write_misses                         0                       # DTB write misses
system.cpu.memDep0.conflictingLoads             44530                       # Number of conflicting loads.
system.cpu.memDep0.conflictingStores            97536                       # Number of conflicting stores.
system.cpu.memDep0.insertedLoads              3257859                       # Number of loads inserted to the mem dependence unit.
system.cpu.memDep0.insertedStores             1836989                       # Number of stores inserted to the mem dependence unit.
system.cpu.misc_regfile_reads                 9400642                       # number of misc regfile reads
system.cpu.misc_regfile_writes                  60935                       # number of misc regfile writes
system.cpu.numCycles                          7592423                       # number of cpu cycles simulated
system.cpu.numWorkItemsCompleted                    0                       # number of work items this cpu completed
system.cpu.numWorkItemsStarted                      0                       # number of work items this cpu started
system.cpu.rename.BlockCycles                  680653                       # Number of cycles rename is blocking
system.cpu.rename.CommittedMaps              11629682                       # Number of HB maps that are committed
system.cpu.rename.IQFullEvents                  76637                       # Number of times rename has blocked due to IQ full
system.cpu.rename.IdleCycles                   996321                       # Number of cycles rename is idle
system.cpu.rename.LQFullEvents                 767641                       # Number of times rename has blocked due to LQ full
system.cpu.rename.ROBFullEvents                  1547                       # Number of times rename has blocked due to ROB full
system.cpu.rename.RenameLookups              22102117                       # Number of register rename lookups that rename has made
system.cpu.rename.RenamedInsts               13596992                       # Number of instructions processed by rename
system.cpu.rename.RenamedOperands            13925886                       # Number of destination operands rename has renamed
system.cpu.rename.RunCycles                   2091591                       # Number of cycles rename is running
system.cpu.rename.SQFullEvents                 846054                       # Number of times rename has blocked due to SQ full
system.cpu.rename.SquashCycles                  36102                       # Number of cycles rename is squashing
system.cpu.rename.UnblockCycles               1778730                       # Number of cycles rename is unblocking
system.cpu.rename.UndoneMaps                  2296149                       # Number of HB maps that are undone due to squashing
system.cpu.rename.int_rename_lookups         17838619                       # Number of integer rename lookups
system.cpu.rename.serializeStallCycles        1941850                       # count of cycles rename stalled for serializing inst
system.cpu.rename.serializingInsts              47392                       # count of serializing insts renamed
system.cpu.rename.skidInsts                   1173465                       # count of insts added to the skid buffer
system.cpu.rename.tempSerializingInsts            205                       # count of temporary serializing insts renamed
system.cpu.rename.vec_rename_lookups           110103                       # Number of vector rename lookups
system.cpu.rob.rob_reads                     19661905                       # The number of ROB reads
system.cpu.rob.rob_writes                    26972822                       # The number of ROB writes
system.cpu.timesIdled                             951                       # Number of times that the entire CPU went into an idle state and unscheduled itself
system.cpu.vec_regfile_reads                    82698                       # number of vector regfile reads
system.cpu.vec_regfile_writes                   85748                       # number of vector regfile writes
system.cpu.workload.numSyscalls                    90                       # Number of system calls
system.membus.snoop_filter.hit_multi_requests            0                       # Number of requests hitting in the snoop filter with multiple (>1) holders of the requested data.
system.membus.snoop_filter.hit_multi_snoops            0                       # Number of snoops hitting in the snoop filter with multiple (>1) holders of the requested data.
system.membus.snoop_filter.hit_single_requests          171                       # Number of requests hitting in the snoop filter with a single holder of the requested data.
system.membus.snoop_filter.hit_single_snoops            0                       # Number of snoops hitting in the snoop filter with a single holder of the requested data.
system.membus.snoop_filter.tot_requests         93725                       # Total number of requests made to the snoop filter.
system.membus.snoop_filter.tot_snoops               0                       # Total number of snoops made to the snoop filter.
system.tol2bus.snoop_filter.hit_multi_requests            1                       # Number of requests hitting in the snoop filter with multiple (>1) holders of the requested data.
system.tol2bus.snoop_filter.hit_multi_snoops            0                       # Number of snoops hitting in the snoop filter with multiple (>1) holders of the requested data.
system.tol2bus.snoop_filter.hit_single_requests       120095                       # Number of requests hitting in the snoop filter with a single holder of the requested data.
system.tol2bus.snoop_filter.hit_single_snoops            8                       # Number of snoops hitting in the snoop filter with a single holder of the requested data.
system.tol2bus.snoop_filter.tot_requests       241470                       # Total number of requests made to the snoop filter.
system.tol2bus.snoop_filter.tot_snoops              8                       # Total number of snoops made to the snoop filter.
system.membus.trans_dist::ReadResp               8784                       # Transaction distribution
system.membus.trans_dist::WritebackDirty          127                       # Transaction distribution
system.membus.trans_dist::CleanEvict               44                       # Transaction distribution
system.membus.trans_dist::ReadExReq             27416                       # Transaction distribution
system.membus.trans_dist::ReadExResp            27416                       # Transaction distribution
system.membus.trans_dist::ReadSharedReq          8784                       # Transaction distribution
system.membus.trans_dist::InvalidateReq         57354                       # Transaction distribution
system.membus.pkt_count_system.l2.mem_side::system.mem_ctrls.port       129925                       # Packet count per connected master and slave (bytes)
system.membus.pkt_count::total                 129925                       # Packet count per connected master and slave (bytes)
system.membus.pkt_size_system.l2.mem_side::system.mem_ctrls.port      2324928                       # Cumulative packet size per connected master and slave (bytes)
system.membus.pkt_size::total                 2324928                       # Cumulative packet size per connected master and slave (bytes)
system.membus.snoops                                0                       # Total snoops (count)
system.membus.snoopTraffic                          0                       # Total snoop traffic (bytes)
system.membus.snoop_fanout::samples             93554                       # Request fanout histogram
system.membus.snoop_fanout::mean                    0                       # Request fanout histogram
system.membus.snoop_fanout::stdev                   0                       # Request fanout histogram
system.membus.snoop_fanout::underflows              0      0.00%      0.00% # Request fanout histogram
system.membus.snoop_fanout::0                   93554    100.00%    100.00% # Request fanout histogram
system.membus.snoop_fanout::1                       0      0.00%    100.00% # Request fanout histogram
system.membus.snoop_fanout::overflows               0      0.00%    100.00% # Request fanout histogram
system.membus.snoop_fanout::min_value               0                       # Request fanout histogram
system.membus.snoop_fanout::max_value               0                       # Request fanout histogram
system.membus.snoop_fanout::total               93554                       # Request fanout histogram
system.membus.reqLayer0.occupancy           101608000                       # Layer occupancy (ticks)
system.membus.reqLayer0.utilization               2.7                       # Layer utilization (%)
system.membus.respLayer1.occupancy          189936500                       # Layer occupancy (ticks)
system.membus.respLayer1.utilization              5.0                       # Layer utilization (%)
system.membus.power_state.pwrStateResidencyTicks::UNDEFINED   3796211000                       # Cumulative time (in ticks) in various power states
system.tol2bus.trans_dist::ReadResp             25953                       # Transaction distribution
system.tol2bus.trans_dist::WritebackDirty       113206                       # Transaction distribution
system.tol2bus.trans_dist::WritebackClean         1488                       # Transaction distribution
system.tol2bus.trans_dist::CleanEvict            5580                       # Transaction distribution
system.tol2bus.trans_dist::ReadExReq            38067                       # Transaction distribution
system.tol2bus.trans_dist::ReadExResp           38067                       # Transaction distribution
system.tol2bus.trans_dist::ReadCleanReq          1744                       # Transaction distribution
system.tol2bus.trans_dist::ReadSharedReq        24209                       # Transaction distribution
system.tol2bus.trans_dist::InvalidateReq        57355                       # Transaction distribution
system.tol2bus.trans_dist::InvalidateResp        57355                       # Transaction distribution
system.tol2bus.pkt_count_system.cpu.icache.mem_side::system.l2.cpu_side         4976                       # Packet count per connected master and slave (bytes)
system.tol2bus.pkt_count_system.cpu.dcache.mem_side::system.l2.cpu_side       357869                       # Packet count per connected master and slave (bytes)
system.tol2bus.pkt_count::total                362845                       # Packet count per connected master and slave (bytes)
system.tol2bus.pkt_size_system.cpu.icache.mem_side::system.l2.cpu_side       206848                       # Cumulative packet size per connected master and slave (bytes)
system.tol2bus.pkt_size_system.cpu.dcache.mem_side::system.l2.cpu_side     11222720                       # Cumulative packet size per connected master and slave (bytes)
system.tol2bus.pkt_size::total               11429568                       # Cumulative packet size per connected master and slave (bytes)
system.tol2bus.snoops                             179                       # Total snoops (count)
system.tol2bus.snoopTraffic                      8128                       # Total snoop traffic (bytes)
system.tol2bus.snoop_fanout::samples           121554                       # Request fanout histogram
system.tol2bus.snoop_fanout::mean            0.000074                       # Request fanout histogram
system.tol2bus.snoop_fanout::stdev           0.008604                       # Request fanout histogram
system.tol2bus.snoop_fanout::underflows             0      0.00%      0.00% # Request fanout histogram
system.tol2bus.snoop_fanout::0                 121545     99.99%     99.99% # Request fanout histogram
system.tol2bus.snoop_fanout::1                      9      0.01%    100.00% # Request fanout histogram
system.tol2bus.snoop_fanout::2                      0      0.00%    100.00% # Request fanout histogram
system.tol2bus.snoop_fanout::overflows              0      0.00%    100.00% # Request fanout histogram
system.tol2bus.snoop_fanout::min_value              0                       # Request fanout histogram
system.tol2bus.snoop_fanout::max_value              1                       # Request fanout histogram
system.tol2bus.snoop_fanout::total             121554                       # Request fanout histogram
system.tol2bus.reqLayer0.occupancy          235302000                       # Layer occupancy (ticks)
system.tol2bus.reqLayer0.utilization              6.2                       # Layer utilization (%)
system.tol2bus.respLayer1.occupancy         122091500                       # Layer occupancy (ticks)
system.tol2bus.respLayer1.utilization             3.2                       # Layer utilization (%)
system.tol2bus.respLayer0.occupancy           2617497                       # Layer occupancy (ticks)
system.tol2bus.respLayer0.utilization             0.1                       # Layer utilization (%)
system.tol2bus.power_state.pwrStateResidencyTicks::UNDEFINED   3796211000                       # Cumulative time (in ticks) in various power states
system.voltage_domain.voltage                       1                       # Voltage in Volts
system.clk_domain.clock                          1000                       # Clock period in ticks
system.l2.demand_hits::.cpu.inst                  928                       # number of demand (read+write) hits
system.l2.demand_hits::.cpu.data                26892                       # number of demand (read+write) hits
system.l2.demand_hits::total                    27820                       # number of demand (read+write) hits
system.l2.overall_hits::.cpu.inst                 928                       # number of overall hits
system.l2.overall_hits::.cpu.data               26892                       # number of overall hits
system.l2.overall_hits::total                   27820                       # number of overall hits
system.l2.demand_misses::.cpu.inst                816                       # number of demand (read+write) misses
system.l2.demand_misses::.cpu.data              35384                       # number of demand (read+write) misses
system.l2.demand_misses::total                  36200                       # number of demand (read+write) misses
system.l2.overall_misses::.cpu.inst               816                       # number of overall misses
system.l2.overall_misses::.cpu.data             35384                       # number of overall misses
system.l2.overall_misses::total                 36200                       # number of overall misses
system.l2.demand_miss_latency::.cpu.inst     64959500                       # number of demand (read+write) miss cycles
system.l2.demand_miss_latency::.cpu.data   2740594000                       # number of demand (read+write) miss cycles
system.l2.demand_miss_latency::total       2805553500                       # number of demand (read+write) miss cycles
system.l2.overall_miss_latency::.cpu.inst     64959500                       # number of overall miss cycles
system.l2.overall_miss_latency::.cpu.data   2740594000                       # number of overall miss cycles
system.l2.overall_miss_latency::total      2805553500                       # number of overall miss cycles
system.l2.demand_accesses::.cpu.inst             1744                       # number of demand (read+write) accesses
system.l2.demand_accesses::.cpu.data            62276                       # number of demand (read+write) accesses
system.l2.demand_accesses::total                64020                       # number of demand (read+write) accesses
system.l2.overall_accesses::.cpu.inst            1744                       # number of overall (read+write) accesses
system.l2.overall_accesses::.cpu.data           62276                       # number of overall (read+write) accesses
system.l2.overall_accesses::total               64020                       # number of overall (read+write) accesses
system.l2.demand_miss_rate::.cpu.inst        0.467890                       # miss rate for demand accesses
system.l2.demand_miss_rate::.cpu.data        0.568180                       # miss rate for demand accesses
system.l2.demand_miss_rate::total            0.565448                       # miss rate for demand accesses
system.l2.overall_miss_rate::.cpu.inst       0.467890                       # miss rate for overall accesses
system.l2.overall_miss_rate::.cpu.data       0.568180                       # miss rate for overall accesses
system.l2.overall_miss_rate::total           0.565448                       # miss rate for overall accesses
system.l2.demand_avg_miss_latency::.cpu.inst 79607.230392                       # average overall miss latency
system.l2.demand_avg_miss_latency::.cpu.data 77452.916572                       # average overall miss latency
system.l2.demand_avg_miss_latency::total 77501.477901                       # average overall miss latency
system.l2.overall_avg_miss_latency::.cpu.inst 79607.230392                       # average overall miss latency
system.l2.overall_avg_miss_latency::.cpu.data 77452.916572                       # average overall miss latency
system.l2.overall_avg_miss_latency::total 77501.477901                       # average overall miss latency
system.l2.blocked_cycles::no_mshrs                  0                       # number of cycles access was blocked
system.l2.blocked_cycles::no_targets                0                       # number of cycles access was blocked
system.l2.blocked::no_mshrs                         0                       # number of cycles access was blocked
system.l2.blocked::no_targets                       0                       # number of cycles access was blocked
system.l2.avg_blocked_cycles::no_mshrs            nan                       # average number of cycles each access was blocked
system.l2.avg_blocked_cycles::no_targets          nan                       # average number of cycles each access was blocked
system.l2.writebacks::.writebacks                 127                       # number of writebacks
system.l2.writebacks::total                       127                       # number of writebacks
system.l2.demand_mshr_misses::.cpu.inst           816                       # number of demand (read+write) MSHR misses
system.l2.demand_mshr_misses::.cpu.data         35384                       # number of demand (read+write) MSHR misses
system.l2.demand_mshr_misses::total             36200                       # number of demand (read+write) MSHR misses
system.l2.overall_mshr_misses::.cpu.inst          816                       # number of overall MSHR misses
system.l2.overall_mshr_misses::.cpu.data        35384                       # number of overall MSHR misses
system.l2.overall_mshr_misses::total            36200                       # number of overall MSHR misses
system.l2.demand_mshr_miss_latency::.cpu.inst     56799001                       # number of demand (read+write) MSHR miss cycles
system.l2.demand_mshr_miss_latency::.cpu.data   2386754000                       # number of demand (read+write) MSHR miss cycles
system.l2.demand_mshr_miss_latency::total   2443553001                       # number of demand (read+write) MSHR miss cycles
system.l2.overall_mshr_miss_latency::.cpu.inst     56799001                       # number of overall MSHR miss cycles
system.l2.overall_mshr_miss_latency::.cpu.data   2386754000                       # number of overall MSHR miss cycles
system.l2.overall_mshr_miss_latency::total   2443553001                       # number of overall MSHR miss cycles
system.l2.demand_mshr_miss_rate::.cpu.inst     0.467890                       # mshr miss rate for demand accesses
system.l2.demand_mshr_miss_rate::.cpu.data     0.568180                       # mshr miss rate for demand accesses
system.l2.demand_mshr_miss_rate::total       0.565448                       # mshr miss rate for demand accesses
system.l2.overall_mshr_miss_rate::.cpu.inst     0.467890                       # mshr miss rate for overall accesses
system.l2.overall_mshr_miss_rate::.cpu.data     0.568180                       # mshr miss rate for overall accesses
system.l2.overall_mshr_miss_rate::total      0.565448                       # mshr miss rate for overall accesses
system.l2.demand_avg_mshr_miss_latency::.cpu.inst 69606.618873                       # average overall mshr miss latency
system.l2.demand_avg_mshr_miss_latency::.cpu.data 67452.916572                       # average overall mshr miss latency
system.l2.demand_avg_mshr_miss_latency::total 67501.464116                       # average overall mshr miss latency
system.l2.overall_avg_mshr_miss_latency::.cpu.inst 69606.618873                       # average overall mshr miss latency
system.l2.overall_avg_mshr_miss_latency::.cpu.data 67452.916572                       # average overall mshr miss latency
system.l2.overall_avg_mshr_miss_latency::total 67501.464116                       # average overall mshr miss latency
system.l2.replacements                            179                       # number of replacements
system.l2.WritebackDirty_hits::.writebacks       113079                       # number of WritebackDirty hits
system.l2.WritebackDirty_hits::total           113079                       # number of WritebackDirty hits
system.l2.WritebackDirty_accesses::.writebacks       113079                       # number of WritebackDirty accesses(hits+misses)
system.l2.WritebackDirty_accesses::total       113079                       # number of WritebackDirty accesses(hits+misses)
system.l2.WritebackClean_hits::.writebacks         1487                       # number of WritebackClean hits
system.l2.WritebackClean_hits::total             1487                       # number of WritebackClean hits
system.l2.WritebackClean_accesses::.writebacks         1487                       # number of WritebackClean accesses(hits+misses)
system.l2.WritebackClean_accesses::total         1487                       # number of WritebackClean accesses(hits+misses)
system.l2.ReadExReq_hits::.cpu.data             10651                       # number of ReadExReq hits
system.l2.ReadExReq_hits::total                 10651                       # number of ReadExReq hits
system.l2.ReadExReq_misses::.cpu.data           27416                       # number of ReadExReq misses
system.l2.ReadExReq_misses::total               27416                       # number of ReadExReq misses
system.l2.ReadExReq_miss_latency::.cpu.data   2128253500                       # number of ReadExReq miss cycles
system.l2.ReadExReq_miss_latency::total    2128253500                       # number of ReadExReq miss cycles
system.l2.ReadExReq_accesses::.cpu.data         38067                       # number of ReadExReq accesses(hits+misses)
system.l2.ReadExReq_accesses::total             38067                       # number of ReadExReq accesses(hits+misses)
system.l2.ReadExReq_miss_rate::.cpu.data     0.720204                       # miss rate for ReadExReq accesses
system.l2.ReadExReq_miss_rate::total         0.720204                       # miss rate for ReadExReq accesses
system.l2.ReadExReq_avg_miss_latency::.cpu.data 77628.155092                       # average ReadExReq miss latency
system.l2.ReadExReq_avg_miss_latency::total 77628.155092                       # average ReadExReq miss latency
system.l2.ReadExReq_mshr_misses::.cpu.data        27416                       # number of ReadExReq MSHR misses
system.l2.ReadExReq_mshr_misses::total          27416                       # number of ReadExReq MSHR misses
system.l2.ReadExReq_mshr_miss_latency::.cpu.data   1854093500                       # number of ReadExReq MSHR miss cycles
system.l2.ReadExReq_mshr_miss_latency::total   1854093500                       # number of ReadExReq MSHR miss cycles
system.l2.ReadExReq_mshr_miss_rate::.cpu.data     0.720204                       # mshr miss rate for ReadExReq accesses
system.l2.ReadExReq_mshr_miss_rate::total     0.720204                       # mshr miss rate for ReadExReq accesses
system.l2.ReadExReq_avg_mshr_miss_latency::.cpu.data 67628.155092                       # average ReadExReq mshr miss latency
system.l2.ReadExReq_avg_mshr_miss_latency::total 67628.155092                       # average ReadExReq mshr miss latency
system.l2.ReadCleanReq_hits::.cpu.inst            928                       # number of ReadCleanReq hits
system.l2.ReadCleanReq_hits::total                928                       # number of ReadCleanReq hits
system.l2.ReadCleanReq_misses::.cpu.inst          816                       # number of ReadCleanReq misses
system.l2.ReadCleanReq_misses::total              816                       # number of ReadCleanReq misses
system.l2.ReadCleanReq_miss_latency::.cpu.inst     64959500                       # number of ReadCleanReq miss cycles
system.l2.ReadCleanReq_miss_latency::total     64959500                       # number of ReadCleanReq miss cycles
system.l2.ReadCleanReq_accesses::.cpu.inst         1744                       # number of ReadCleanReq accesses(hits+misses)
system.l2.ReadCleanReq_accesses::total           1744                       # number of ReadCleanReq accesses(hits+misses)
system.l2.ReadCleanReq_miss_rate::.cpu.inst     0.467890                       # miss rate for ReadCleanReq accesses
system.l2.ReadCleanReq_miss_rate::total      0.467890                       # miss rate for ReadCleanReq accesses
system.l2.ReadCleanReq_avg_miss_latency::.cpu.inst 79607.230392                       # average ReadCleanReq miss latency
system.l2.ReadCleanReq_avg_miss_latency::total 79607.230392                       # average ReadCleanReq miss latency
system.l2.ReadCleanReq_mshr_misses::.cpu.inst          816                       # number of ReadCleanReq MSHR misses
system.l2.ReadCleanReq_mshr_misses::total          816                       # number of ReadCleanReq MSHR misses
system.l2.ReadCleanReq_mshr_miss_latency::.cpu.inst     56799001                       # number of ReadCleanReq MSHR miss cycles
system.l2.ReadCleanReq_mshr_miss_latency::total     56799001                       # number of ReadCleanReq MSHR miss cycles
system.l2.ReadCleanReq_mshr_miss_rate::.cpu.inst     0.467890                       # mshr miss rate for ReadCleanReq accesses
system.l2.ReadCleanReq_mshr_miss_rate::total     0.467890                       # mshr miss rate for ReadCleanReq accesses
system.l2.ReadCleanReq_avg_mshr_miss_latency::.cpu.inst 69606.618873                       # average ReadCleanReq mshr miss latency
[...]
system.cpu.dcache.overall_miss_latency::total  16238489301                       # number of overall miss cycles
system.cpu.dcache.demand_accesses::.cpu.data      4542127                       # number of demand (read+write) accesses
system.cpu.dcache.demand_accesses::total      4542127                       # number of demand (read+write) accesses
system.cpu.dcache.overall_accesses::.cpu.data      4542184                       # number of overall (read+write) accesses
system.cpu.dcache.overall_accesses::total      4542184                       # number of overall (read+write) accesses
system.cpu.dcache.demand_miss_rate::.cpu.data     0.079989                       # miss rate for demand accesses
system.cpu.dcache.demand_miss_rate::total     0.079989                       # miss rate for demand accesses
system.cpu.dcache.overall_miss_rate::.cpu.data     0.079991                       # miss rate for overall accesses
system.cpu.dcache.overall_miss_rate::total     0.079991                       # miss rate for overall accesses
system.cpu.dcache.demand_avg_miss_latency::.cpu.data 44694.853011                       # average overall miss latency
system.cpu.dcache.demand_avg_miss_latency::total 44694.853011                       # average overall miss latency
system.cpu.dcache.overall_avg_miss_latency::.cpu.data 44693.253831                       # average overall miss latency
system.cpu.dcache.overall_avg_miss_latency::total 44693.253831                       # average overall miss latency
system.cpu.dcache.blocked_cycles::no_mshrs        27510                       # number of cycles access was blocked
system.cpu.dcache.blocked_cycles::no_targets          600                       # number of cycles access was blocked
system.cpu.dcache.blocked::no_mshrs              1875                       # number of cycles access was blocked
system.cpu.dcache.blocked::no_targets              19                       # number of cycles access was blocked
system.cpu.dcache.avg_blocked_cycles::no_mshrs    14.672000                       # average number of cycles each access was blocked
system.cpu.dcache.avg_blocked_cycles::no_targets    31.578947                       # average number of cycles each access was blocked
system.cpu.dcache.writebacks::.writebacks       113079                       # number of writebacks
system.cpu.dcache.writebacks::total            113079                       # number of writebacks
system.cpu.dcache.demand_mshr_hits::.cpu.data       243703                       # number of demand (read+write) MSHR hits
system.cpu.dcache.demand_mshr_hits::total       243703                       # number of demand (read+write) MSHR hits
system.cpu.dcache.overall_mshr_hits::.cpu.data       243703                       # number of overall MSHR hits
system.cpu.dcache.overall_mshr_hits::total       243703                       # number of overall MSHR hits
system.cpu.dcache.demand_mshr_misses::.cpu.data       119616                       # number of demand (read+write) MSHR misses
system.cpu.dcache.demand_mshr_misses::total       119616                       # number of demand (read+write) MSHR misses
system.cpu.dcache.overall_mshr_misses::.cpu.data       119629                       # number of overall MSHR misses
system.cpu.dcache.overall_mshr_misses::total       119629                       # number of overall MSHR misses
system.cpu.dcache.demand_mshr_miss_latency::.cpu.data   5532519802                       # number of demand (read+write) MSHR miss cycles
system.cpu.dcache.demand_mshr_miss_latency::total   5532519802                       # number of demand (read+write) MSHR miss cycles
system.cpu.dcache.overall_mshr_miss_latency::.cpu.data   5532839302                       # number of overall MSHR miss cycles
system.cpu.dcache.overall_mshr_miss_latency::total   5532839302                       # number of overall MSHR miss cycles
system.cpu.dcache.demand_mshr_miss_rate::.cpu.data     0.026335                       # mshr miss rate for demand accesses
system.cpu.dcache.demand_mshr_miss_rate::total     0.026335                       # mshr miss rate for demand accesses
system.cpu.dcache.overall_mshr_miss_rate::.cpu.data     0.026337                       # mshr miss rate for overall accesses
system.cpu.dcache.overall_mshr_miss_rate::total     0.026337                       # mshr miss rate for overall accesses
system.cpu.dcache.demand_avg_mshr_miss_latency::.cpu.data 46252.339169                       # average overall mshr miss latency
system.cpu.dcache.demand_avg_mshr_miss_latency::total 46252.339169                       # average overall mshr miss latency
system.cpu.dcache.overall_avg_mshr_miss_latency::.cpu.data 46249.983716                       # average overall mshr miss latency
system.cpu.dcache.overall_avg_mshr_miss_latency::total 46249.983716                       # average overall mshr miss latency
system.cpu.dcache.replacements                 118607                       # number of replacements
system.cpu.dcache.ReadReq_hits::.cpu.data      2882750                       # number of ReadReq hits
system.cpu.dcache.ReadReq_hits::total         2882750                       # number of ReadReq hits
system.cpu.dcache.ReadReq_misses::.cpu.data        75624                       # number of ReadReq misses
system.cpu.dcache.ReadReq_misses::total         75624                       # number of ReadReq misses
system.cpu.dcache.ReadReq_miss_latency::.cpu.data   3533733000                       # number of ReadReq miss cycles
system.cpu.dcache.ReadReq_miss_latency::total   3533733000                       # number of ReadReq miss cycles
system.cpu.dcache.ReadReq_accesses::.cpu.data      2958374                       # number of ReadReq accesses(hits+misses)
system.cpu.dcache.ReadReq_accesses::total      2958374                       # number of ReadReq accesses(hits+misses)
system.cpu.dcache.ReadReq_miss_rate::.cpu.data     0.025563                       # miss rate for ReadReq accesses
system.cpu.dcache.ReadReq_miss_rate::total     0.025563                       # miss rate for ReadReq accesses
system.cpu.dcache.ReadReq_avg_miss_latency::.cpu.data 46727.665820                       # average ReadReq miss latency
system.cpu.dcache.ReadReq_avg_miss_latency::total 46727.665820                       # average ReadReq miss latency
system.cpu.dcache.ReadReq_mshr_hits::.cpu.data        51428                       # number of ReadReq MSHR hits
system.cpu.dcache.ReadReq_mshr_hits::total        51428                       # number of ReadReq MSHR hits
system.cpu.dcache.ReadReq_mshr_misses::.cpu.data        24196                       # number of ReadReq MSHR misses
system.cpu.dcache.ReadReq_mshr_misses::total        24196                       # number of ReadReq MSHR misses
system.cpu.dcache.ReadReq_mshr_miss_latency::.cpu.data    820472500                       # number of ReadReq MSHR miss cycles
system.cpu.dcache.ReadReq_mshr_miss_latency::total    820472500                       # number of ReadReq MSHR miss cycles
system.cpu.dcache.ReadReq_mshr_miss_rate::.cpu.data     0.008179                       # mshr miss rate for ReadReq accesses
system.cpu.dcache.ReadReq_mshr_miss_rate::total     0.008179                       # mshr miss rate for ReadReq accesses
system.cpu.dcache.ReadReq_avg_mshr_miss_latency::.cpu.data 33909.427178                       # average ReadReq mshr miss latency
system.cpu.dcache.ReadReq_avg_mshr_miss_latency::total 33909.427178                       # average ReadReq mshr miss latency
system.cpu.dcache.WriteReq_hits::.cpu.data      1296058                       # number of WriteReq hits
system.cpu.dcache.WriteReq_hits::total        1296058                       # number of WriteReq hits
system.cpu.dcache.WriteReq_misses::.cpu.data       230353                       # number of WriteReq misses
system.cpu.dcache.WriteReq_misses::total       230353                       # number of WriteReq misses
system.cpu.dcache.WriteReq_miss_latency::.cpu.data  10279274456                       # number of WriteReq miss cycles
system.cpu.dcache.WriteReq_miss_latency::total  10279274456                       # number of WriteReq miss cycles
system.cpu.dcache.WriteReq_accesses::.cpu.data      1526411                       # number of WriteReq accesses(hits+misses)
system.cpu.dcache.WriteReq_accesses::total      1526411                       # number of WriteReq accesses(hits+misses)
system.cpu.dcache.WriteReq_miss_rate::.cpu.data     0.150912                       # miss rate for WriteReq accesses
system.cpu.dcache.WriteReq_miss_rate::total     0.150912                       # miss rate for WriteReq accesses
system.cpu.dcache.WriteReq_avg_miss_latency::.cpu.data 44624.009481                       # average WriteReq miss latency
system.cpu.dcache.WriteReq_avg_miss_latency::total 44624.009481                       # average WriteReq miss latency
system.cpu.dcache.WriteReq_mshr_hits::.cpu.data       192275                       # number of WriteReq MSHR hits
system.cpu.dcache.WriteReq_mshr_hits::total       192275                       # number of WriteReq MSHR hits
system.cpu.dcache.WriteReq_mshr_misses::.cpu.data        38078                       # number of WriteReq MSHR misses
system.cpu.dcache.WriteReq_mshr_misses::total        38078                       # number of WriteReq MSHR misses
system.cpu.dcache.WriteReq_mshr_miss_latency::.cpu.data   2343907457                       # number of WriteReq MSHR miss cycles
system.cpu.dcache.WriteReq_mshr_miss_latency::total   2343907457                       # number of WriteReq MSHR miss cycles
system.cpu.dcache.WriteReq_mshr_miss_rate::.cpu.data     0.024946                       # mshr miss rate for WriteReq accesses
system.cpu.dcache.WriteReq_mshr_miss_rate::total     0.024946                       # mshr miss rate for WriteReq accesses
system.cpu.dcache.WriteReq_avg_mshr_miss_latency::.cpu.data 61555.424576                       # average WriteReq mshr miss latency
system.cpu.dcache.WriteReq_avg_mshr_miss_latency::total 61555.424576                       # average WriteReq mshr miss latency
system.cpu.dcache.SoftPFReq_hits::.cpu.data           44                       # number of SoftPFReq hits
system.cpu.dcache.SoftPFReq_hits::total            44                       # number of SoftPFReq hits
system.cpu.dcache.SoftPFReq_misses::.cpu.data           13                       # number of SoftPFReq misses
system.cpu.dcache.SoftPFReq_misses::total           13                       # number of SoftPFReq misses
system.cpu.dcache.SoftPFReq_accesses::.cpu.data           57                       # number of SoftPFReq accesses(hits+misses)
system.cpu.dcache.SoftPFReq_accesses::total           57                       # number of SoftPFReq accesses(hits+misses)
system.cpu.dcache.SoftPFReq_miss_rate::.cpu.data     0.228070                       # miss rate for SoftPFReq accesses
system.cpu.dcache.SoftPFReq_miss_rate::total     0.228070                       # miss rate for SoftPFReq accesses
system.cpu.dcache.SoftPFReq_mshr_misses::.cpu.data           13                       # number of SoftPFReq MSHR misses
system.cpu.dcache.SoftPFReq_mshr_misses::total           13                       # number of SoftPFReq MSHR misses
system.cpu.dcache.SoftPFReq_mshr_miss_latency::.cpu.data       319500                       # number of SoftPFReq MSHR miss cycles
system.cpu.dcache.SoftPFReq_mshr_miss_latency::total       319500                       # number of SoftPFReq MSHR miss cycles
system.cpu.dcache.SoftPFReq_mshr_miss_rate::.cpu.data     0.228070                       # mshr miss rate for SoftPFReq accesses
system.cpu.dcache.SoftPFReq_mshr_miss_rate::total     0.228070                       # mshr miss rate for SoftPFReq accesses
system.cpu.dcache.SoftPFReq_avg_mshr_miss_latency::.cpu.data 24576.923077                       # average SoftPFReq mshr miss latency
system.cpu.dcache.SoftPFReq_avg_mshr_miss_latency::total 24576.923077                       # average SoftPFReq mshr miss latency
system.cpu.dcache.WriteLineReq_misses::.cpu.data        57342                       # number of WriteLineReq misses
system.cpu.dcache.WriteLineReq_misses::total        57342                       # number of WriteLineReq misses
system.cpu.dcache.WriteLineReq_miss_latency::.cpu.data   2425481845                       # number of WriteLineReq miss cycles
system.cpu.dcache.WriteLineReq_miss_latency::total   2425481845                       # number of WriteLineReq miss cycles
system.cpu.dcache.WriteLineReq_accesses::.cpu.data        57342                       # number of WriteLineReq accesses(hits+misses)
system.cpu.dcache.WriteLineReq_accesses::total        57342                       # number of WriteLineReq accesses(hits+misses)
system.cpu.dcache.WriteLineReq_miss_rate::.cpu.data            1                       # miss rate for WriteLineReq accesses
system.cpu.dcache.WriteLineReq_miss_rate::total            1                       # miss rate for WriteLineReq accesses
system.cpu.dcache.WriteLineReq_avg_miss_latency::.cpu.data 42298.521939                       # average WriteLineReq miss latency
system.cpu.dcache.WriteLineReq_avg_miss_latency::total 42298.521939                       # average WriteLineReq miss latency
system.cpu.dcache.WriteLineReq_mshr_misses::.cpu.data        57342                       # number of WriteLineReq MSHR misses
system.cpu.dcache.WriteLineReq_mshr_misses::total        57342                       # number of WriteLineReq MSHR misses
system.cpu.dcache.WriteLineReq_mshr_miss_latency::.cpu.data   2368139845                       # number of WriteLineReq MSHR miss cycles
system.cpu.dcache.WriteLineReq_mshr_miss_latency::total   2368139845                       # number of WriteLineReq MSHR miss cycles
system.cpu.dcache.WriteLineReq_mshr_miss_rate::.cpu.data            1                       # mshr miss rate for WriteLineReq accesses
system.cpu.dcache.WriteLineReq_mshr_miss_rate::total            1                       # mshr miss rate for WriteLineReq accesses
system.cpu.dcache.WriteLineReq_avg_mshr_miss_latency::.cpu.data 41298.521939                       # average WriteLineReq mshr miss latency
system.cpu.dcache.WriteLineReq_avg_mshr_miss_latency::total 41298.521939                       # average WriteLineReq mshr miss latency
system.cpu.dcache.LoadLockedReq_hits::.cpu.data           86                       # number of LoadLockedReq hits
system.cpu.dcache.LoadLockedReq_hits::total           86                       # number of LoadLockedReq hits
system.cpu.dcache.LoadLockedReq_misses::.cpu.data            3                       # number of LoadLockedReq misses
system.cpu.dcache.LoadLockedReq_misses::total            3                       # number of LoadLockedReq misses
system.cpu.dcache.LoadLockedReq_miss_latency::.cpu.data       173000                       # number of LoadLockedReq miss cycles
system.cpu.dcache.LoadLockedReq_miss_latency::total       173000                       # number of LoadLockedReq miss cycles
system.cpu.dcache.LoadLockedReq_accesses::.cpu.data           89                       # number of LoadLockedReq accesses(hits+misses)
system.cpu.dcache.LoadLockedReq_accesses::total           89                       # number of LoadLockedReq accesses(hits+misses)
system.cpu.dcache.LoadLockedReq_miss_rate::.cpu.data     0.033708                       # miss rate for LoadLockedReq accesses
system.cpu.dcache.LoadLockedReq_miss_rate::total     0.033708                       # miss rate for LoadLockedReq accesses
system.cpu.dcache.LoadLockedReq_avg_miss_latency::.cpu.data 57666.666667                       # average LoadLockedReq miss latency
system.cpu.dcache.LoadLockedReq_avg_miss_latency::total 57666.666667                       # average LoadLockedReq miss latency
system.cpu.dcache.LoadLockedReq_mshr_hits::.cpu.data            1                       # number of LoadLockedReq MSHR hits
system.cpu.dcache.LoadLockedReq_mshr_hits::total            1                       # number of LoadLockedReq MSHR hits
system.cpu.dcache.LoadLockedReq_mshr_misses::.cpu.data            2                       # number of LoadLockedReq MSHR misses
system.cpu.dcache.LoadLockedReq_mshr_misses::total            2                       # number of LoadLockedReq MSHR misses
system.cpu.dcache.LoadLockedReq_mshr_miss_latency::.cpu.data        84500                       # number of LoadLockedReq MSHR miss cycles
system.cpu.dcache.LoadLockedReq_mshr_miss_latency::total        84500                       # number of LoadLockedReq MSHR miss cycles
system.cpu.dcache.LoadLockedReq_mshr_miss_rate::.cpu.data     0.022472                       # mshr miss rate for LoadLockedReq accesses
system.cpu.dcache.LoadLockedReq_mshr_miss_rate::total     0.022472                       # mshr miss rate for LoadLockedReq accesses
system.cpu.dcache.LoadLockedReq_avg_mshr_miss_latency::.cpu.data        42250                       # average LoadLockedReq mshr miss latency
system.cpu.dcache.LoadLockedReq_avg_mshr_miss_latency::total        42250                       # average LoadLockedReq mshr miss latency
system.cpu.dcache.StoreCondReq_hits::.cpu.data           71                       # number of StoreCondReq hits
system.cpu.dcache.StoreCondReq_hits::total           71                       # number of StoreCondReq hits
system.cpu.dcache.StoreCondReq_accesses::.cpu.data           71                       # number of StoreCondReq accesses(hits+misses)
system.cpu.dcache.StoreCondReq_accesses::total           71                       # number of StoreCondReq accesses(hits+misses)
system.cpu.dcache.power_state.pwrStateResidencyTicks::UNDEFINED   3796211000                       # Cumulative time (in ticks) in various power states
system.cpu.dcache.tags.tagsinuse          1013.413774                       # Cycle average of tags in use
system.cpu.dcache.tags.total_refs             4298640                       # Total number of references to valid blocks.
system.cpu.dcache.tags.sampled_refs            119631                       # Sample count of references to valid blocks.
system.cpu.dcache.tags.avg_refs             35.932492                       # Average number of references to valid blocks.
system.cpu.dcache.tags.warmup_cycle            176500                       # Cycle when the warmup percentage was hit.
system.cpu.dcache.tags.occ_blocks::.cpu.data  1013.413774                       # Average occupied blocks per requestor
system.cpu.dcache.tags.occ_percent::.cpu.data     0.989662                       # Average percentage of cache occupancy
system.cpu.dcache.tags.occ_percent::total     0.989662                       # Average percentage of cache occupancy
system.cpu.dcache.tags.occ_task_id_blocks::1024         1024                       # Occupied blocks per task id
system.cpu.dcache.tags.age_task_id_blocks_1024::0          118                       # Occupied blocks per task id
system.cpu.dcache.tags.age_task_id_blocks_1024::1          716                       # Occupied blocks per task id
system.cpu.dcache.tags.age_task_id_blocks_1024::2          190                       # Occupied blocks per task id
system.cpu.dcache.tags.occ_task_id_percent::1024            1                       # Percentage of cache occupancy per task id
system.cpu.dcache.tags.tag_accesses           9204319                       # Number of tag accesses
system.cpu.dcache.tags.data_accesses          9204319                       # Number of data accesses
system.cpu.dcache.tags.power_state.pwrStateResidencyTicks::UNDEFINED   3796211000                       # Cumulative time (in ticks) in various power states
system.cpu.power_state.pwrStateResidencyTicks::ON   3796211000                       # Cumulative time (in ticks) in various power states

---------- End Simulation Statistics   ----------
