
---------- Begin Simulation Statistics ----------
final_tick                                13410016500                       # Number of ticks from beginning of simulation (restored from checkpoints and never reset)
host_inst_rate                                  25881                       # Simulator instruction rate (inst/s)
host_mem_usage                                 864860                       # Number of bytes of host memory used
host_op_rate                                    28812                       # Simulator op (including micro ops) rate (op/s)
host_seconds                                   386.39                       # Real time elapsed on the host
host_tick_rate                               34706243                       # Simulator tick rate (ticks/s)
sim_freq                                 1000000000000                       # Frequency of simulated ticks
sim_insts                                    10000001                       # Number of instructions simulated
sim_ops                                      11132385                       # Number of ops (including micro ops) simulated
sim_seconds                                  0.013410                       # Number of seconds simulated
sim_ticks                                 13410016500                       # Number of ticks simulated
system.cpu.branchPred.BTBCorrect                    0                       # Number of correct BTB predictions (this stat may not work properly.
system.cpu.branchPred.BTBHitPct             98.326779                       # BTB Hit Percentage
system.cpu.branchPred.BTBHits                  955107                       # Number of BTB hits
system.cpu.branchPred.BTBLookups               971360                       # Number of BTB lookups
system.cpu.branchPred.RASInCorrect                  0                       # Number of incorrect RAS predictions.
system.cpu.branchPred.condIncorrect             40847                       # Number of conditional branches incorrect
system.cpu.branchPred.condPredicted           1484644                       # Number of conditional branches predicted
system.cpu.branchPred.indirectHits              34256                       # Number of indirect target hits.
system.cpu.branchPred.indirectLookups           34394                       # Number of indirect predictor lookups.
system.cpu.branchPred.indirectMisses              138                       # Number of indirect misses.
system.cpu.branchPred.lookups                 2000725                       # Number of BP lookups
system.cpu.branchPred.usedRAS                  183396                       # Number of times the RAS was used to get a target.
system.cpu.branchPredindirectMispredicted           71                       # Number of mispredicted indirect branches.
system.cpu.cc_regfile_reads                   3506550                       # number of cc regfile reads
system.cpu.cc_regfile_writes                  3501275                       # number of cc regfile writes
system.cpu.commit.amos                              0                       # Number of atomic instructions committed
system.cpu.commit.branchMispredicts             37741                       # The number of times a branch was mispredicted
system.cpu.commit.branches                    1873361                       # Number of branches committed
system.cpu.commit.bw_lim_events                245286                       # number cycles where commit BW limit reached
system.cpu.commit.commitNonSpecStalls           11441                       # The number of times commit has been forced to stall to communicate backwards
system.cpu.commit.commitSquashedInsts          316522                       # The number of squashed insts skipped by commit
system.cpu.commit.committedInsts             10008566                       # Number of instructions committed
system.cpu.commit.committedOps               11140950                       # Number of ops (including micro ops) committed
system.cpu.commit.committed_per_cycle::samples     22507067                       # Number of insts commited each cycle
system.cpu.commit.committed_per_cycle::mean     0.494998                       # Number of insts commited each cycle
system.cpu.commit.committed_per_cycle::stdev     1.288938                       # Number of insts commited each cycle
system.cpu.commit.committed_per_cycle::underflows            0      0.00%      0.00% # Number of insts commited each cycle
system.cpu.commit.committed_per_cycle::0     17836342     79.25%     79.25% # Number of insts commited each cycle
system.cpu.commit.committed_per_cycle::1      2015855      8.96%     88.20% # Number of insts commited each cycle
system.cpu.commit.committed_per_cycle::2      1229770      5.46%     93.67% # Number of insts commited each cycle
system.cpu.commit.committed_per_cycle::3       551101      2.45%     96.12% # Number of insts commited each cycle
system.cpu.commit.committed_per_cycle::4       261089      1.16%     97.28% # Number of insts commited each cycle
system.cpu.commit.committed_per_cycle::5       251936      1.12%     98.40% # Number of insts commited each cycle
system.cpu.commit.committed_per_cycle::6        63888      0.28%     98.68% # Number of insts commited each cycle
system.cpu.commit.committed_per_cycle::7        51800      0.23%     98.91% # Number of insts commited each cycle
system.cpu.commit.committed_per_cycle::8       245286      1.09%    100.00% # Number of insts commited each cycle
system.cpu.commit.committed_per_cycle::overflows            0      0.00%    100.00% # Number of insts commited each cycle
system.cpu.commit.committed_per_cycle::min_value            0                       # Number of insts commited each cycle
system.cpu.commit.committed_per_cycle::max_value            8                       # Number of insts commited each cycle
system.cpu.commit.committed_per_cycle::total     22507067                       # Number of insts commited each cycle
system.cpu.commit.fp_insts                          0                       # Number of committed floating point instructions.
system.cpu.commit.function_calls               183162                       # Number of function calls committed.
system.cpu.commit.int_insts                   9941906                       # Number of committed integer instructions.
system.cpu.commit.loads                       1623294                       # Number of loads committed
system.cpu.commit.membars                       11427                       # Number of memory barriers committed
system.cpu.commit.op_class_0::No_OpClass        11428      0.10%      0.10% # Class of committed instruction
system.cpu.commit.op_class_0::IntAlu          7562940     67.88%     67.99% # Class of committed instruction
system.cpu.commit.op_class_0::IntMult          227263      2.04%     70.03% # Class of committed instruction
system.cpu.commit.op_class_0::IntDiv                4      0.00%     70.03% # Class of committed instruction
system.cpu.commit.op_class_0::FloatAdd              0      0.00%     70.03% # Class of committed instruction
system.cpu.commit.op_class_0::FloatCmp          11420      0.10%     70.13% # Class of committed instruction
system.cpu.commit.op_class_0::FloatCvt           5710      0.05%     70.18% # Class of committed instruction
system.cpu.commit.op_class_0::FloatMult             0      0.00%     70.18% # Class of committed instruction
system.cpu.commit.op_class_0::FloatMultAcc            0      0.00%     70.18% # Class of committed instruction
system.cpu.commit.op_class_0::FloatDiv           5710      0.05%     70.23% # Class of committed instruction
system.cpu.commit.op_class_0::FloatMisc         22840      0.21%     70.44% # Class of committed instruction
system.cpu.commit.op_class_0::FloatSqrt             0      0.00%     70.44% # Class of committed instruction
system.cpu.commit.op_class_0::SimdAdd           22868      0.21%     70.64% # Class of committed instruction
system.cpu.commit.op_class_0::SimdAddAcc            0      0.00%     70.64% # Class of committed instruction
system.cpu.commit.op_class_0::SimdAlu           45709      0.41%     71.05% # Class of committed instruction
system.cpu.commit.op_class_0::SimdCmp           45712      0.41%     71.46% # Class of committed instruction
system.cpu.commit.op_class_0::SimdCvt               0      0.00%     71.46% # Class of committed instruction
system.cpu.commit.op_class_0::SimdMisc          34285      0.31%     71.77% # Class of committed instruction
system.cpu.commit.op_class_0::SimdMult              0      0.00%     71.77% # Class of committed instruction
system.cpu.commit.op_class_0::SimdMultAcc            0      0.00%     71.77% # Class of committed instruction
system.cpu.commit.op_class_0::SimdShift             0      0.00%     71.77% # Class of committed instruction
system.cpu.commit.op_class_0::SimdShiftAcc            0      0.00%     71.77% # Class of committed instruction
system.cpu.commit.op_class_0::SimdDiv               0      0.00%     71.77% # Class of committed instruction
system.cpu.commit.op_class_0::SimdSqrt              0      0.00%     71.77% # Class of committed instruction
system.cpu.commit.op_class_0::SimdFloatAdd            0      0.00%     71.77% # Class of committed instruction
system.cpu.commit.op_class_0::SimdFloatAlu            0      0.00%     71.77% # Class of committed instruction
system.cpu.commit.op_class_0::SimdFloatCmp            0      0.00%     71.77% # Class of committed instruction
system.cpu.commit.op_class_0::SimdFloatCvt            0      0.00%     71.77% # Class of committed instruction
system.cpu.commit.op_class_0::SimdFloatDiv            0      0.00%     71.77% # Class of committed instruction
system.cpu.commit.op_class_0::SimdFloatMisc            0      0.00%     71.77% # Class of committed instruction
system.cpu.commit.op_class_0::SimdFloatMult            0      0.00%     71.77% # Class of committed instruction
system.cpu.commit.op_class_0::SimdFloatMultAcc            0      0.00%     71.77% # Class of committed instruction
system.cpu.commit.op_class_0::SimdFloatSqrt            0      0.00%     71.77% # Class of committed instruction
system.cpu.commit.op_class_0::SimdReduceAdd            0      0.00%     71.77% # Class of committed instruction
system.cpu.commit.op_class_0::SimdReduceAlu            0      0.00%     71.77% # Class of committed instruction
system.cpu.commit.op_class_0::SimdReduceCmp            0      0.00%     71.77% # Class of committed instruction
system.cpu.commit.op_class_0::SimdFloatReduceAdd            0      0.00%     71.77% # Class of committed instruction
system.cpu.commit.op_class_0::SimdFloatReduceCmp            0      0.00%     71.77% # Class of committed instruction
system.cpu.commit.op_class_0::SimdAes               0      0.00%     71.77% # Class of committed instruction
system.cpu.commit.op_class_0::SimdAesMix            0      0.00%     71.77% # Class of committed instruction
system.cpu.commit.op_class_0::SimdSha1Hash            0      0.00%     71.77% # Class of committed instruction
system.cpu.commit.op_class_0::SimdSha1Hash2            0      0.00%     71.77% # Class of committed instruction
system.cpu.commit.op_class_0::SimdSha256Hash            0      0.00%     71.77% # Class of committed instruction
system.cpu.commit.op_class_0::SimdSha256Hash2            0      0.00%     71.77% # Class of committed instruction
system.cpu.commit.op_class_0::SimdShaSigma2            0      0.00%     71.77% # Class of committed instruction
system.cpu.commit.op_class_0::SimdShaSigma3            0      0.00%     71.77% # Class of committed instruction
system.cpu.commit.op_class_0::SimdPredAlu            0      0.00%     71.77% # Class of committed instruction
system.cpu.commit.op_class_0::MemRead         1623294     14.57%     86.34% # Class of committed instruction
system.cpu.commit.op_class_0::MemWrite        1521767     13.66%    100.00% # Class of committed instruction
system.cpu.commit.op_class_0::FloatMemRead            0      0.00%    100.00% # Class of committed instruction
system.cpu.commit.op_class_0::FloatMemWrite            0      0.00%    100.00% # Class of committed instruction
system.cpu.commit.op_class_0::IprAccess             0      0.00%    100.00% # Class of committed instruction
system.cpu.commit.op_class_0::InstPrefetch            0      0.00%    100.00% # Class of committed instruction
system.cpu.commit.op_class_0::total          11140950                       # Class of committed instruction
system.cpu.commit.refs                        3145061                       # Number of memory references committed
system.cpu.commit.swp_count                         0                       # Number of s/w prefetches committed
system.cpu.commit.vec_insts                    337102                       # Number of committed Vector instructions.
system.cpu.committedInsts                    10000001                       # Number of Instructions Simulated
system.cpu.committedOps                      11132385                       # Number of Ops (including micro ops) Simulated
system.cpu.cpi                               2.682003                       # CPI: Cycles Per Instruction
system.cpu.cpi_total                         2.682003                       # CPI: Total CPI of All Threads
system.cpu.decode.BlockedCycles                415081                       # Number of cycles decode is blocked
system.cpu.decode.BranchMispred                  3108                       # Number of times decode detected a branch misprediction
system.cpu.decode.BranchResolved               949216                       # Number of times decode resolved a branch
system.cpu.decode.DecodedInsts               11668741                       # Number of instructions handled by decode
system.cpu.decode.IdleCycles                 19749880                       # Number of cycles decode is idle
system.cpu.decode.RunCycles                   2355103                       # Number of cycles decode is running
system.cpu.decode.SquashCycles                  37786                       # Number of cycles decode is squashing
system.cpu.decode.SquashedInsts                   834                       # Number of squashed instructions handled by decode
system.cpu.decode.UnblockCycles                 12801                       # Number of cycles decode is unblocking
system.cpu.dtb.accesses                             0                       # DTB accesses
system.cpu.dtb.align_faults                         0                       # Number of TLB faults due to alignment restrictions
system.cpu.dtb.domain_faults                        0                       # Number of TLB faults due to domain restrictions
system.cpu.dtb.flush_entries                        0                       # Number of entries that have been flushed from TLB
system.cpu.dtb.flush_tlb                            0                       # Number of times complete TLB was flushed
system.cpu.dtb.flush_tlb_asid                       0                       # Number of times TLB was flushed by ASID
system.cpu.dtb.flush_tlb_mva                        0                       # Number of times TLB was flushed by MVA
system.cpu.dtb.flush_tlb_mva_asid                   0                       # Number of times TLB was flushed by MVA & ASID
system.cpu.dtb.hits                                 0                       # DTB hits
system.cpu.dtb.inst_accesses                        0                       # ITB inst accesses
system.cpu.dtb.inst_hits                            0                       # ITB inst hits
system.cpu.dtb.inst_misses                          0                       # ITB inst misses
system.cpu.dtb.misses                               0                       # DTB misses
system.cpu.dtb.perms_faults                         0                       # Number of TLB faults due to permissions restrictions
system.cpu.dtb.prefetch_faults                      0                       # Number of TLB faults due to prefetch
system.cpu.dtb.read_accesses                        0                       # DTB read accesses
system.cpu.dtb.read_hits                            0                       # DTB read hits
system.cpu.dtb.read_misses                          0                       # DTB read misses
system.cpu.dtb.stage2_mmu.stage2_tlb.accesses            0                       # DTB accesses
system.cpu.dtb.stage2_mmu.stage2_tlb.align_faults            0                       # Number of TLB faults due to alignment restrictions
system.cpu.dtb.stage2_mmu.stage2_tlb.domain_faults            0                       # Number of TLB faults due to domain restrictions
system.cpu.dtb.stage2_mmu.stage2_tlb.flush_entries            0                       # Number of entries that have been flushed from TLB
system.cpu.dtb.stage2_mmu.stage2_tlb.flush_tlb            0                       # Number of times complete TLB was flushed
system.cpu.dtb.stage2_mmu.stage2_tlb.flush_tlb_asid            0                       # Number of times TLB was flushed by ASID
system.cpu.dtb.stage2_mmu.stage2_tlb.flush_tlb_mva            0                       # Number of times TLB was flushed by MVA
system.cpu.dtb.stage2_mmu.stage2_tlb.flush_tlb_mva_asid            0                       # Number of times TLB was flushed by MVA & ASID
system.cpu.dtb.stage2_mmu.stage2_tlb.hits            0                       # DTB hits
system.cpu.dtb.stage2_mmu.stage2_tlb.inst_accesses            0                       # ITB inst accesses
system.cpu.dtb.stage2_mmu.stage2_tlb.inst_hits            0                       # ITB inst hits
system.cpu.dtb.stage2_mmu.stage2_tlb.inst_misses            0                       # ITB inst misses
system.cpu.dtb.stage2_mmu.stage2_tlb.misses            0                       # DTB misses
system.cpu.dtb.stage2_mmu.stage2_tlb.perms_faults            0                       # Number of TLB faults due to permissions restrictions
system.cpu.dtb.stage2_mmu.stage2_tlb.prefetch_faults            0                       # Number of TLB faults due to prefetch
system.cpu.dtb.stage2_mmu.stage2_tlb.read_accesses            0                       # DTB read accesses
system.cpu.dtb.stage2_mmu.stage2_tlb.read_hits            0                       # DTB read hits
system.cpu.dtb.stage2_mmu.stage2_tlb.read_misses            0                       # DTB read misses
system.cpu.dtb.stage2_mmu.stage2_tlb.walker.walkRequestOrigin_Requested::Data            0                       # Table walker requests started/completed, data/inst
system.cpu.dtb.stage2_mmu.stage2_tlb.walker.walkRequestOrigin_Requested::Inst            0                       # Table walker requests started/completed, data/inst
system.cpu.dtb.stage2_mmu.stage2_tlb.walker.walkRequestOrigin_Requested::total            0                       # Table walker requests started/completed, data/inst
system.cpu.dtb.stage2_mmu.stage2_tlb.walker.walkRequestOrigin_Completed::Data            0                       # Table walker requests started/completed, data/inst
system.cpu.dtb.stage2_mmu.stage2_tlb.walker.walkRequestOrigin_Completed::Inst            0                       # Table walker requests started/completed, data/inst
system.cpu.dtb.stage2_mmu.stage2_tlb.walker.walkRequestOrigin_Completed::total            0                       # Table walker requests started/completed, data/inst
system.cpu.dtb.stage2_mmu.stage2_tlb.walker.walkRequestOrigin::total            0                       # Table walker requests started/completed, data/inst
system.cpu.dtb.stage2_mmu.stage2_tlb.walker.walks            0                       # Table walker walks requested
system.cpu.dtb.stage2_mmu.stage2_tlb.write_accesses            0                       # DTB write accesses
system.cpu.dtb.stage2_mmu.stage2_tlb.write_hits            0                       # DTB write hits
system.cpu.dtb.stage2_mmu.stage2_tlb.write_misses            0                       # DTB write misses
system.cpu.dtb.walker.walkRequestOrigin_Requested::Data            0                       # Table walker requests started/completed, data/inst
system.cpu.dtb.walker.walkRequestOrigin_Requested::Inst            0                       # Table walker requests started/completed, data/inst
system.cpu.dtb.walker.walkRequestOrigin_Requested::total            0                       # Table walker requests started/completed, data/inst
system.cpu.dtb.walker.walkRequestOrigin_Completed::Data            0                       # Table walker requests started/completed, data/inst
system.cpu.dtb.walker.walkRequestOrigin_Completed::Inst            0                       # Table walker requests started/completed, data/inst
system.cpu.dtb.walker.walkRequestOrigin_Completed::total            0                       # Table walker requests started/completed, data/inst
system.cpu.dtb.walker.walkRequestOrigin::total            0                       # Table walker requests started/completed, data/inst
system.cpu.dtb.walker.walks                         0                       # Table walker walks requested
system.cpu.dtb.write_accesses                       0                       # DTB write accesses
system.cpu.dtb.write_hits                           0                       # DTB write hits
system.cpu.dtb.write_misses                         0                       # DTB write misses
system.cpu.fetch.Branches                     2000725                       # Number of branches that fetch encountered
system.cpu.fetch.CacheLines                   1675819                       # Number of cache lines fetched
system.cpu.fetch.Cycles                       2382491                       # Number of cycles fetch has run and was not squashing or blocked
system.cpu.fetch.IcacheSquashes                 22347                       # Number of outstanding Icache misses that were squashed
system.cpu.fetch.IcacheWaitRetryStallCycles          135                       # Number of stall cycles due to full MSHR
system.cpu.fetch.Insts                       10523787                       # Number of instructions fetch has processed
system.cpu.fetch.MiscStallCycles                   27                       # Number of cycles fetch has spent waiting on interrupts, or bad addresses, or out of MSHRs
system.cpu.fetch.SquashCycles                   81784                       # Number of cycles fetch has spent squashing
system.cpu.fetch.branchRate                  0.074598                       # Number of branch fetches per cycle
system.cpu.fetch.icacheStallCycles           20147106                       # Number of cycles fetch is stalled on an Icache miss
system.cpu.fetch.predictedBranches            1172759                       # Number of branches that fetch has predicted taken
system.cpu.fetch.rate                        0.392385                       # Number of inst fetches per cycle
system.cpu.fetch.rateDist::samples           22570651                       # Number of instructions fetched each cycle (Total)
system.cpu.fetch.rateDist::mean              0.520626                       # Number of instructions fetched each cycle (Total)
system.cpu.fetch.rateDist::stdev             1.735756                       # Number of instructions fetched each cycle (Total)
system.cpu.fetch.rateDist::underflows               0      0.00%      0.00% # Number of instructions fetched each cycle (Total)
system.cpu.fetch.rateDist::0                 20190107     89.45%     89.45% # Number of instructions fetched each cycle (Total)
system.cpu.fetch.rateDist::1                   381867      1.69%     91.14% # Number of instructions fetched each cycle (Total)
system.cpu.fetch.rateDist::2                   156772      0.69%     91.84% # Number of instructions fetched each cycle (Total)
system.cpu.fetch.rateDist::3                   190211      0.84%     92.68% # Number of instructions fetched each cycle (Total)
system.cpu.fetch.rateDist::4                   447126      1.98%     94.66% # Number of instructions fetched each cycle (Total)
system.cpu.fetch.rateDist::5                   122378      0.54%     95.21% # Number of instructions fetched each cycle (Total)
system.cpu.fetch.rateDist::6                   260835      1.16%     96.36% # Number of instructions fetched each cycle (Total)
system.cpu.fetch.rateDist::7                    51425      0.23%     96.59% # Number of instructions fetched each cycle (Total)
system.cpu.fetch.rateDist::8                   769930      3.41%    100.00% # Number of instructions fetched each cycle (Total)
system.cpu.fetch.rateDist::overflows                0      0.00%    100.00% # Number of instructions fetched each cycle (Total)
system.cpu.fetch.rateDist::min_value                0                       # Number of instructions fetched each cycle (Total)
system.cpu.fetch.rateDist::max_value                8                       # Number of instructions fetched each cycle (Total)
system.cpu.fetch.rateDist::total             22570651                       # Number of instructions fetched each cycle (Total)
system.cpu.icache.prefetcher.num_hwpf_issued      2372181                       # number of hwpf issued
system.cpu.icache.prefetcher.pfBufferHit    100320886                       # number of redundant prefetches already in prefetch queue
system.cpu.icache.prefetcher.pfIdentified    109436233                       # number of prefetch candidates identified
system.cpu.icache.prefetcher.pfInCache              0                       # number of redundant prefetches already in cache/mshr dropped
system.cpu.icache.prefetcher.pfRemovedFull      5780179                       # number of prefetches dropped due to prefetch queue size
system.cpu.icache.prefetcher.pfSpanPage     596599420                       # number of prefetches that crossed the page
system.cpu.idleCycles                         4249383                       # Total number of cycles that the CPU has spent unscheduled due to idling
system.cpu.iew.branchMispredicts                37810                       # Number of branch mispredicts detected at execute
system.cpu.iew.exec_branches                  1890781                       # Number of branches executed
system.cpu.iew.exec_nop                          8604                       # number of nop insts executed
system.cpu.iew.exec_rate                     0.422041                       # Inst execution rate
system.cpu.iew.exec_refs                      3232551                       # number of memory reference insts executed
system.cpu.iew.exec_stores                    1527054                       # Number of stores executed
system.cpu.iew.exec_swp                             0                       # number of swp insts executed
system.cpu.iew.iewBlockCycles                   26264                       # Number of cycles IEW is blocking
system.cpu.iew.iewDispLoadInsts               1676967                       # Number of dispatched load instructions
system.cpu.iew.iewDispNonSpecInsts              11446                       # Number of dispatched non-speculative instructions
system.cpu.iew.iewDispSquashedInsts             45694                       # Number of squashed instructions skipped by dispatch
system.cpu.iew.iewDispStoreInsts              1555118                       # Number of dispatched store instructions
system.cpu.iew.iewDispatchedInsts            11457490                       # Number of instructions dispatched to IQ
system.cpu.iew.iewExecLoadInsts               1705497                       # Number of load instructions executed
system.cpu.iew.iewExecSquashedInsts             46321                       # Number of squashed instructions skipped in execute
system.cpu.iew.iewExecutedInsts              11319157                       # Number of executed instructions
system.cpu.iew.iewIQFullEvents                      6                       # Number of times the IQ has become full, causing a stall
system.cpu.iew.iewIdleCycles                        0                       # Number of cycles IEW is idle
system.cpu.iew.iewLSQFullEvents                   134                       # Number of times the LSQ has become full, causing a stall
system.cpu.iew.iewSquashCycles                  37786                       # Number of cycles IEW is squashing
system.cpu.iew.iewUnblockCycles                   142                       # Number of cycles IEW is unblocking
system.cpu.iew.lsq.thread0.blockedLoads             0                       # Number of blocked loads due to partial load-store forwarding
system.cpu.iew.lsq.thread0.cacheBlocked            57                       # Number of times an access to memory failed due to the cache being blocked
system.cpu.iew.lsq.thread0.forwLoads            12588                       # Number of loads that had data forwarded from stores
system.cpu.iew.lsq.thread0.ignoredResponses            0                       # Number of memory responses ignored because the instruction is squashed
system.cpu.iew.lsq.thread0.invAddrLoads             0                       # Number of loads ignored due to an invalid address
system.cpu.iew.lsq.thread0.invAddrSwpfs             0                       # Number of software prefetches ignored due to an invalid address
system.cpu.iew.lsq.thread0.memOrderViolation           50                       # Number of memory ordering violations
system.cpu.iew.lsq.thread0.rescheduledLoads        51406                       # Number of loads that were rescheduled
system.cpu.iew.lsq.thread0.squashedLoads        53673                       # Number of loads squashed
system.cpu.iew.lsq.thread0.squashedStores        33347                       # Number of stores squashed
system.cpu.iew.memOrderViolationEvents             50                       # Number of memory order violations
system.cpu.iew.predictedNotTakenIncorrect        27880                       # Number of branches that were predicted not taken incorrectly
system.cpu.iew.predictedTakenIncorrect           9930                       # Number of branches that were predicted taken incorrectly
system.cpu.iew.wb_consumers                   9586506                       # num instructions consuming a value
system.cpu.iew.wb_count                      11252811                       # cumulative count of insts written-back
system.cpu.iew.wb_fanout                     0.573500                       # average fanout of values written-back
system.cpu.iew.wb_producers                   5497860                       # num instructions producing a value
system.cpu.iew.wb_rate                       0.419567                       # insts written-back per cycle
system.cpu.iew.wb_sent                       11253319                       # cumulative count of insts sent to commit
system.cpu.int_regfile_reads                 13737353                       # number of integer regfile reads
system.cpu.int_regfile_writes                 8084169                       # number of integer regfile writes
system.cpu.ipc                               0.372856                       # IPC: Instructions Per Cycle
system.cpu.ipc_total                         0.372856                       # IPC: Total IPC of All Threads
system.cpu.iq.FU_type_0::No_OpClass             11429      0.10%      0.10% # Type of FU issued
system.cpu.iq.FU_type_0::IntAlu               7692279     67.68%     67.78% # Type of FU issued
system.cpu.iq.FU_type_0::IntMult               227263      2.00%     69.78% # Type of FU issued
system.cpu.iq.FU_type_0::IntDiv                     4      0.00%     69.78% # Type of FU issued
system.cpu.iq.FU_type_0::FloatAdd                   0      0.00%     69.78% # Type of FU issued
system.cpu.iq.FU_type_0::FloatCmp               11420      0.10%     69.88% # Type of FU issued
system.cpu.iq.FU_type_0::FloatCvt                5710      0.05%     69.93% # Type of FU issued
system.cpu.iq.FU_type_0::FloatMult                  0      0.00%     69.93% # Type of FU issued
system.cpu.iq.FU_type_0::FloatMultAcc               0      0.00%     69.93% # Type of FU issued
system.cpu.iq.FU_type_0::FloatDiv                5710      0.05%     69.98% # Type of FU issued
system.cpu.iq.FU_type_0::FloatMisc              22841      0.20%     70.18% # Type of FU issued
system.cpu.iq.FU_type_0::FloatSqrt                  0      0.00%     70.18% # Type of FU issued
system.cpu.iq.FU_type_0::SimdAdd                22874      0.20%     70.38% # Type of FU issued
system.cpu.iq.FU_type_0::SimdAddAcc                 0      0.00%     70.38% # Type of FU issued
system.cpu.iq.FU_type_0::SimdAlu                45713      0.40%     70.79% # Type of FU issued
system.cpu.iq.FU_type_0::SimdCmp                45716      0.40%     71.19% # Type of FU issued
system.cpu.iq.FU_type_0::SimdCvt                    0      0.00%     71.19% # Type of FU issued
system.cpu.iq.FU_type_0::SimdMisc               34288      0.30%     71.49% # Type of FU issued
system.cpu.iq.FU_type_0::SimdMult                   0      0.00%     71.49% # Type of FU issued
system.cpu.iq.FU_type_0::SimdMultAcc                0      0.00%     71.49% # Type of FU issued
system.cpu.iq.FU_type_0::SimdShift                  0      0.00%     71.49% # Type of FU issued
system.cpu.iq.FU_type_0::SimdShiftAcc               0      0.00%     71.49% # Type of FU issued
system.cpu.iq.FU_type_0::SimdDiv                    0      0.00%     71.49% # Type of FU issued
system.cpu.iq.FU_type_0::SimdSqrt                   0      0.00%     71.49% # Type of FU issued
system.cpu.iq.FU_type_0::SimdFloatAdd               0      0.00%     71.49% # Type of FU issued
system.cpu.iq.FU_type_0::SimdFloatAlu               0      0.00%     71.49% # Type of FU issued
system.cpu.iq.FU_type_0::SimdFloatCmp               0      0.00%     71.49% # Type of FU issued
system.cpu.iq.FU_type_0::SimdFloatCvt               0      0.00%     71.49% # Type of FU issued
system.cpu.iq.FU_type_0::SimdFloatDiv               0      0.00%     71.49% # Type of FU issued
system.cpu.iq.FU_type_0::SimdFloatMisc              0      0.00%     71.49% # Type of FU issued
system.cpu.iq.FU_type_0::SimdFloatMult              0      0.00%     71.49% # Type of FU issued
system.cpu.iq.FU_type_0::SimdFloatMultAcc            0      0.00%     71.49% # Type of FU issued
system.cpu.iq.FU_type_0::SimdFloatSqrt              0      0.00%     71.49% # Type of FU issued
system.cpu.iq.FU_type_0::SimdReduceAdd              0      0.00%     71.49% # Type of FU issued
system.cpu.iq.FU_type_0::SimdReduceAlu              0      0.00%     71.49% # Type of FU issued
system.cpu.iq.FU_type_0::SimdReduceCmp              0      0.00%     71.49% # Type of FU issued
system.cpu.iq.FU_type_0::SimdFloatReduceAdd            0      0.00%     71.49% # Type of FU issued
system.cpu.iq.FU_type_0::SimdFloatReduceCmp            0      0.00%     71.49% # Type of FU issued
system.cpu.iq.FU_type_0::SimdAes                    0      0.00%     71.49% # Type of FU issued
system.cpu.iq.FU_type_0::SimdAesMix                 0      0.00%     71.49% # Type of FU issued
system.cpu.iq.FU_type_0::SimdSha1Hash               0      0.00%     71.49% # Type of FU issued
system.cpu.iq.FU_type_0::SimdSha1Hash2              0      0.00%     71.49% # Type of FU issued
system.cpu.iq.FU_type_0::SimdSha256Hash             0      0.00%     71.49% # Type of FU issued
system.cpu.iq.FU_type_0::SimdSha256Hash2            0      0.00%     71.49% # Type of FU issued
system.cpu.iq.FU_type_0::SimdShaSigma2              0      0.00%     71.49% # Type of FU issued
system.cpu.iq.FU_type_0::SimdShaSigma3              0      0.00%     71.49% # Type of FU issued
system.cpu.iq.FU_type_0::SimdPredAlu                0      0.00%     71.49% # Type of FU issued
system.cpu.iq.FU_type_0::MemRead              1707061     15.02%     86.51% # Type of FU issued
system.cpu.iq.FU_type_0::MemWrite             1533171     13.49%    100.00% # Type of FU issued
system.cpu.iq.FU_type_0::FloatMemRead               0      0.00%    100.00% # Type of FU issued
system.cpu.iq.FU_type_0::FloatMemWrite              0      0.00%    100.00% # Type of FU issued
system.cpu.iq.FU_type_0::IprAccess                  0      0.00%    100.00% # Type of FU issued
system.cpu.iq.FU_type_0::InstPrefetch               0      0.00%    100.00% # Type of FU issued
system.cpu.iq.FU_type_0::total               11365479                       # Type of FU issued
system.cpu.iq.fp_alu_accesses                       0                       # Number of floating point alu accesses
system.cpu.iq.fp_inst_queue_reads                   0                       # Number of floating instruction queue reads
system.cpu.iq.fp_inst_queue_wakeup_accesses            0                       # Number of floating instruction queue wakeup accesses
system.cpu.iq.fp_inst_queue_writes                  0                       # Number of floating instruction queue writes
system.cpu.iq.fu_busy_cnt                      121955                       # FU busy when requested
system.cpu.iq.fu_busy_rate                   0.010730                       # FU busy rate (busy events/executed inst)
system.cpu.iq.fu_full::No_OpClass                   0      0.00%      0.00% # attempts to use FU when none available
system.cpu.iq.fu_full::IntAlu                     775      0.64%      0.64% # attempts to use FU when none available
system.cpu.iq.fu_full::IntMult                  51099     41.90%     42.54% # attempts to use FU when none available
system.cpu.iq.fu_full::IntDiv                       0      0.00%     42.54% # attempts to use FU when none available
system.cpu.iq.fu_full::FloatAdd                     0      0.00%     42.54% # attempts to use FU when none available
system.cpu.iq.fu_full::FloatCmp                     0      0.00%     42.54% # attempts to use FU when none available
system.cpu.iq.fu_full::FloatCvt                     0      0.00%     42.54% # attempts to use FU when none available
system.cpu.iq.fu_full::FloatMult                    0      0.00%     42.54% # attempts to use FU when none available
system.cpu.iq.fu_full::FloatMultAcc                 0      0.00%     42.54% # attempts to use FU when none available
system.cpu.iq.fu_full::FloatDiv                     0      0.00%     42.54% # attempts to use FU when none available
system.cpu.iq.fu_full::FloatMisc                    0      0.00%     42.54% # attempts to use FU when none available
system.cpu.iq.fu_full::FloatSqrt                    0      0.00%     42.54% # attempts to use FU when none available
system.cpu.iq.fu_full::SimdAdd                      0      0.00%     42.54% # attempts to use FU when none available
system.cpu.iq.fu_full::SimdAddAcc                   0      0.00%     42.54% # attempts to use FU when none available
system.cpu.iq.fu_full::SimdAlu                      1      0.00%     42.54% # attempts to use FU when none available
system.cpu.iq.fu_full::SimdCmp                      2      0.00%     42.54% # attempts to use FU when none available
system.cpu.iq.fu_full::SimdCvt                      0      0.00%     42.54% # attempts to use FU when none available
system.cpu.iq.fu_full::SimdMisc                     0      0.00%     42.54% # attempts to use FU when none available
system.cpu.iq.fu_full::SimdMult                     0      0.00%     42.54% # attempts to use FU when none available
system.cpu.iq.fu_full::SimdMultAcc                  0      0.00%     42.54% # attempts to use FU when none available
system.cpu.iq.fu_full::SimdShift                    0      0.00%     42.54% # attempts to use FU when none available
system.cpu.iq.fu_full::SimdShiftAcc                 0      0.00%     42.54% # attempts to use FU when none available
system.cpu.iq.fu_full::SimdDiv                      0      0.00%     42.54% # attempts to use FU when none available
system.cpu.iq.fu_full::SimdSqrt                     0      0.00%     42.54% # attempts to use FU when none available
system.cpu.iq.fu_full::SimdFloatAdd                 0      0.00%     42.54% # attempts to use FU when none available
system.cpu.iq.fu_full::SimdFloatAlu                 0      0.00%     42.54% # attempts to use FU when none available
system.cpu.iq.fu_full::SimdFloatCmp                 0      0.00%     42.54% # attempts to use FU when none available
system.cpu.iq.fu_full::SimdFloatCvt                 0      0.00%     42.54% # attempts to use FU when none available
system.cpu.iq.fu_full::SimdFloatDiv                 0      0.00%     42.54% # attempts to use FU when none available
system.cpu.iq.fu_full::SimdFloatMisc                0      0.00%     42.54% # attempts to use FU when none available
system.cpu.iq.fu_full::SimdFloatMult                0      0.00%     42.54% # attempts to use FU when none available
system.cpu.iq.fu_full::SimdFloatMultAcc             0      0.00%     42.54% # attempts to use FU when none available
system.cpu.iq.fu_full::SimdFloatSqrt                0      0.00%     42.54% # attempts to use FU when none available
system.cpu.iq.fu_full::SimdReduceAdd                0      0.00%     42.54% # attempts to use FU when none available
system.cpu.iq.fu_full::SimdReduceAlu                0      0.00%     42.54% # attempts to use FU when none available
system.cpu.iq.fu_full::SimdReduceCmp                0      0.00%     42.54% # attempts to use FU when none available
system.cpu.iq.fu_full::SimdFloatReduceAdd            0      0.00%     42.54% # attempts to use FU when none available
system.cpu.iq.fu_full::SimdFloatReduceCmp            0      0.00%     42.54% # attempts to use FU when none available
system.cpu.iq.fu_full::SimdAes                      0      0.00%     42.54% # attempts to use FU when none available
system.cpu.iq.fu_full::SimdAesMix                   0      0.00%     42.54% # attempts to use FU when none available
system.cpu.iq.fu_full::SimdSha1Hash                 0      0.00%     42.54% # attempts to use FU when none available
system.cpu.iq.fu_full::SimdSha1Hash2                0      0.00%     42.54% # attempts to use FU when none available
system.cpu.iq.fu_full::SimdSha256Hash               0      0.00%     42.54% # attempts to use FU when none available
system.cpu.iq.fu_full::SimdSha256Hash2              0      0.00%     42.54% # attempts to use FU when none available
system.cpu.iq.fu_full::SimdShaSigma2                0      0.00%     42.54% # attempts to use FU when none available
system.cpu.iq.fu_full::SimdShaSigma3                0      0.00%     42.54% # attempts to use FU when none available
system.cpu.iq.fu_full::SimdPredAlu                  0      0.00%     42.54% # attempts to use FU when none available
system.cpu.iq.fu_full::MemRead                  17901     14.68%     57.22% # attempts to use FU when none available
system.cpu.iq.fu_full::MemWrite                 52177     42.78%    100.00% # attempts to use FU when none available
system.cpu.iq.fu_full::FloatMemRead                 0      0.00%    100.00% # attempts to use FU when none available
system.cpu.iq.fu_full::FloatMemWrite                0      0.00%    100.00% # attempts to use FU when none available
system.cpu.iq.fu_full::IprAccess                    0      0.00%    100.00% # attempts to use FU when none available
system.cpu.iq.fu_full::InstPrefetch                 0      0.00%    100.00% # attempts to use FU when none available
system.cpu.iq.int_alu_accesses               11127413                       # Number of integer alu accesses
system.cpu.iq.int_inst_queue_reads           44726439                       # Number of integer instruction queue reads
system.cpu.iq.int_inst_queue_wakeup_accesses     10915677                       # Number of integer instruction queue wakeup accesses
system.cpu.iq.int_inst_queue_writes          11428035                       # Number of integer instruction queue writes
system.cpu.iq.iqInstsAdded                   11437440                       # Number of instructions added to the IQ (excludes non-spec)
system.cpu.iq.iqInstsIssued                  11365479                       # Number of instructions issued
system.cpu.iq.iqNonSpecInstsAdded               11446                       # Number of non-speculative instructions added to the IQ
system.cpu.iq.iqSquashedInstsExamined          316483                       # Number of squashed instructions iterated over during squash; mainly for profiling
system.cpu.iq.iqSquashedInstsIssued                74                       # Number of squashed instructions issued
system.cpu.iq.iqSquashedNonSpecRemoved              5                       # Number of squashed non-spec instructions that were removed
system.cpu.iq.iqSquashedOperandsExamined       296099                       # Number of squashed operands that are examined and possibly removed from graph
system.cpu.iq.issued_per_cycle::samples      22570651                       # Number of insts issued each cycle
system.cpu.iq.issued_per_cycle::mean         0.503551                       # Number of insts issued each cycle
system.cpu.iq.issued_per_cycle::stdev        1.188067                       # Number of insts issued each cycle
system.cpu.iq.issued_per_cycle::underflows            0      0.00%      0.00% # Number of insts issued each cycle
system.cpu.iq.issued_per_cycle::0            17694528     78.40%     78.40% # Number of insts issued each cycle
system.cpu.iq.issued_per_cycle::1             1967065      8.72%     87.11% # Number of insts issued each cycle
system.cpu.iq.issued_per_cycle::2             1119853      4.96%     92.07% # Number of insts issued each cycle
system.cpu.iq.issued_per_cycle::3              787917      3.49%     95.56% # Number of insts issued each cycle
system.cpu.iq.issued_per_cycle::4              549112      2.43%     98.00% # Number of insts issued each cycle
system.cpu.iq.issued_per_cycle::5              213894      0.95%     98.94% # Number of insts issued each cycle
system.cpu.iq.issued_per_cycle::6              159492      0.71%     99.65% # Number of insts issued each cycle
system.cpu.iq.issued_per_cycle::7               58233      0.26%     99.91% # Number of insts issued each cycle
system.cpu.iq.issued_per_cycle::8               20557      0.09%    100.00% # Number of insts issued each cycle
system.cpu.iq.issued_per_cycle::overflows            0      0.00%    100.00% # Number of insts issued each cycle
system.cpu.iq.issued_per_cycle::min_value            0                       # Number of insts issued each cycle
system.cpu.iq.issued_per_cycle::max_value            8                       # Number of insts issued each cycle
system.cpu.iq.issued_per_cycle::total        22570651                       # Number of insts issued each cycle
system.cpu.iq.rate                           0.423768                       # Inst issue rate
system.cpu.iq.vec_alu_accesses                 348592                       # Number of vector alu accesses
system.cpu.iq.vec_inst_queue_reads             697198                       # Number of vector instruction queue reads
system.cpu.iq.vec_inst_queue_wakeup_accesses       337134                       # Number of vector instruction queue wakeup accesses
system.cpu.iq.vec_inst_queue_writes            337362                       # Number of vector instruction queue writes
system.cpu.itb.accesses                             0                       # DTB accesses
system.cpu.itb.align_faults                         0                       # Number of TLB faults due to alignment restrictions
system.cpu.itb.domain_faults                        0                       # Number of TLB faults due to domain restrictions
system.cpu.itb.flush_entries                        0                       # Number of entries that have been flushed from TLB
system.cpu.itb.flush_tlb                            0                       # Number of times complete TLB was flushed
system.cpu.itb.flush_tlb_asid                       0                       # Number of times TLB was flushed by ASID
system.cpu.itb.flush_tlb_mva                        0                       # Number of times TLB was flushed by MVA
system.cpu.itb.flush_tlb_mva_asid                   0                       # Number of times TLB was flushed by MVA & ASID
system.cpu.itb.hits                                 0                       # DTB hits
system.cpu.itb.inst_accesses                        0                       # ITB inst accesses
system.cpu.itb.inst_hits                            0                       # ITB inst hits
system.cpu.itb.inst_misses                          0                       # ITB inst misses
system.cpu.itb.misses                               0                       # DTB misses
system.cpu.itb.perms_faults                         0                       # Number of TLB faults due to permissions restrictions
system.cpu.itb.prefetch_faults                      0                       # Number of TLB faults due to prefetch
system.cpu.itb.read_accesses                        0                       # DTB read accesses
system.cpu.itb.read_hits                            0                       # DTB read hits
system.cpu.itb.read_misses                          0                       # DTB read misses
system.cpu.itb.stage2_mmu.stage2_tlb.accesses            0                       # DTB accesses
system.cpu.itb.stage2_mmu.stage2_tlb.align_faults            0                       # Number of TLB faults due to alignment restrictions
system.cpu.itb.stage2_mmu.stage2_tlb.domain_faults            0                       # Number of TLB faults due to domain restrictions
system.cpu.itb.stage2_mmu.stage2_tlb.flush_entries            0                       # Number of entries that have been flushed from TLB
system.cpu.itb.stage2_mmu.stage2_tlb.flush_tlb            0                       # Number of times complete TLB was flushed
system.cpu.itb.stage2_mmu.stage2_tlb.flush_tlb_asid            0                       # Number of times TLB was flushed by ASID
system.cpu.itb.stage2_mmu.stage2_tlb.flush_tlb_mva            0                       # Number of times TLB was flushed by MVA
system.cpu.itb.stage2_mmu.stage2_tlb.flush_tlb_mva_asid            0                       # Number of times TLB was flushed by MVA & ASID
system.cpu.itb.stage2_mmu.stage2_tlb.hits            0                       # DTB hits
system.cpu.itb.stage2_mmu.stage2_tlb.inst_accesses            0                       # ITB inst accesses
system.cpu.itb.stage2_mmu.stage2_tlb.inst_hits            0                       # ITB inst hits
system.cpu.itb.stage2_mmu.stage2_tlb.inst_misses            0                       # ITB inst misses
system.cpu.itb.stage2_mmu.stage2_tlb.misses            0                       # DTB misses
system.cpu.itb.stage2_mmu.stage2_tlb.perms_faults            0                       # Number of TLB faults due to permissions restrictions
system.cpu.itb.stage2_mmu.stage2_tlb.prefetch_faults            0                       # Number of TLB faults due to prefetch
system.cpu.itb.stage2_mmu.stage2_tlb.read_accesses            0                       # DTB read accesses
system.cpu.itb.stage2_mmu.stage2_tlb.read_hits            0                       # DTB read hits
system.cpu.itb.stage2_mmu.stage2_tlb.read_misses            0                       # DTB read misses
system.cpu.itb.stage2_mmu.stage2_tlb.walker.walkRequestOrigin_Requested::Data            0                       # Table walker requests started/completed, data/inst
system.cpu.itb.stage2_mmu.stage2_tlb.walker.walkRequestOrigin_Requested::Inst            0                       # Table walker requests started/completed, data/inst
system.cpu.itb.stage2_mmu.stage2_tlb.walker.walkRequestOrigin_Requested::total            0                       # Table walker requests started/completed, data/inst
system.cpu.itb.stage2_mmu.stage2_tlb.walker.walkRequestOrigin_Completed::Data            0                       # Table walker requests started/completed, data/inst
system.cpu.itb.stage2_mmu.stage2_tlb.walker.walkRequestOrigin_Completed::Inst            0                       # Table walker requests started/completed, data/inst
system.cpu.itb.stage2_mmu.stage2_tlb.walker.walkRequestOrigin_Completed::total            0                       # Table walker requests started/completed, data/inst
system.cpu.itb.stage2_mmu.stage2_tlb.walker.walkRequestOrigin::total            0                       # Table walker requests started/completed, data/inst
system.cpu.itb.stage2_mmu.stage2_tlb.walker.walks            0                       # Table walker walks requested
system.cpu.itb.stage2_mmu.stage2_tlb.write_accesses            0                       # DTB write accesses
system.cpu.itb.stage2_mmu.stage2_tlb.write_hits            0                       # DTB write hits
system.cpu.itb.stage2_mmu.stage2_tlb.write_misses            0                       # DTB write misses
system.cpu.itb.walker.walkRequestOrigin_Requested::Data            0                       # Table walker requests started/completed, data/inst
system.cpu.itb.walker.walkRequestOrigin_Requested::Inst            0                       # Table walker requests started/completed, data/inst
system.cpu.itb.walker.walkRequestOrigin_Requested::total            0                       # Table walker requests started/completed, data/inst
system.cpu.itb.walker.walkRequestOrigin_Completed::Data            0                       # Table walker requests started/completed, data/inst
system.cpu.itb.walker.walkRequestOrigin_Completed::Inst            0                       # Table walker requests started/completed, data/inst
system.cpu.itb.walker.walkRequestOrigin_Completed::total            0                       # Table walker requests started/completed, data/inst
system.cpu.itb.walker.walkRequestOrigin::total            0                       # Table walker requests started/completed, data/inst
system.cpu.itb.walker.walks                         0                       # Table walker walks requested
system.cpu.itb.write_accesses                       0                       # DTB write accesses
system.cpu.itb.write_hits                           0                       # DTB write hits
system.cpu.itb.write_misses                         0                       # DTB write misses
system.cpu.memDep0.conflictingLoads             52004                       # Number of conflicting loads.
system.cpu.memDep0.conflictingStores            51959                       # Number of conflicting stores.
system.cpu.memDep0.insertedLoads              1676967                       # Number of loads inserted to the mem dependence unit.
system.cpu.memDep0.insertedStores             1555118                       # Number of stores inserted to the mem dependence unit.
system.cpu.misc_regfile_reads                 8091866                       # number of misc regfile reads
system.cpu.misc_regfile_writes                  74259                       # number of misc regfile writes
system.cpu.numCycles                         26820034                       # number of cpu cycles simulated
system.cpu.numWorkItemsCompleted                    0                       # number of work items this cpu completed
system.cpu.numWorkItemsStarted                      0                       # number of work items this cpu started
system.cpu.rename.BlockCycles                   26440                       # Number of cycles rename is blocking
system.cpu.rename.CommittedMaps              11692988                       # Number of HB maps that are committed
system.cpu.rename.IQFullEvents                   3137                       # Number of times rename has blocked due to IQ full
system.cpu.rename.IdleCycles                 19782273                       # Number of cycles rename is idle
system.cpu.rename.ROBFullEvents                     2                       # Number of times rename has blocked due to ROB full
system.cpu.rename.RenameLookups              18929509                       # Number of register rename lookups that rename has made
system.cpu.rename.RenamedInsts               11600446                       # Number of instructions processed by rename
system.cpu.rename.RenamedOperands            12221472                       # Number of destination operands rename has renamed
system.cpu.rename.RunCycles                   2335492                       # Number of cycles rename is running
system.cpu.rename.SQFullEvents                    861                       # Number of times rename has blocked due to SQ full
system.cpu.rename.SquashCycles                  37786                       # Number of cycles rename is squashing
system.cpu.rename.UnblockCycles                 61169                       # Number of cycles rename is unblocking
system.cpu.rename.UndoneMaps                   528466                       # Number of HB maps that are undone due to squashing
system.cpu.rename.int_rename_lookups         14051762                       # Number of integer rename lookups
system.cpu.rename.serializeStallCycles         327491                       # count of cycles rename stalled for serializing inst
system.cpu.rename.serializingInsts              40164                       # count of serializing insts renamed
system.cpu.rename.skidInsts                    318902                       # count of insts added to the skid buffer
system.cpu.rename.tempSerializingInsts          11445                       # count of temporary serializing insts renamed
system.cpu.rename.vec_rename_lookups           394432                       # Number of vector rename lookups
system.cpu.rob.rob_reads                     33719019                       # The number of ROB reads
system.cpu.rob.rob_writes                    22978554                       # The number of ROB writes
system.cpu.timesIdled                          714793                       # Number of times that the entire CPU went into an idle state and unscheduled itself
system.cpu.vec_regfile_reads                   394307                       # number of vector regfile reads
system.cpu.vec_regfile_writes                  222843                       # number of vector regfile writes
system.cpu.workload.numSyscalls                    13                       # Number of system calls
system.membus.snoop_filter.hit_multi_requests            0                       # Number of requests hitting in the snoop filter with multiple (>1) holders of the requested data.
system.membus.snoop_filter.hit_multi_snoops            0                       # Number of snoops hitting in the snoop filter with multiple (>1) holders of the requested data.
system.membus.snoop_filter.hit_single_requests            0                       # Number of requests hitting in the snoop filter with a single holder of the requested data.
system.membus.snoop_filter.hit_single_snoops            0                       # Number of snoops hitting in the snoop filter with a single holder of the requested data.
system.membus.snoop_filter.tot_requests           869                       # Total number of requests made to the snoop filter.
system.membus.snoop_filter.tot_snoops               0                       # Total number of snoops made to the snoop filter.
system.tol2bus.snoop_filter.hit_multi_requests         5659                       # Number of requests hitting in the snoop filter with multiple (>1) holders of the requested data.
system.tol2bus.snoop_filter.hit_multi_snoops            0                       # Number of snoops hitting in the snoop filter with multiple (>1) holders of the requested data.
system.tol2bus.snoop_filter.hit_single_requests      2501192                       # Number of requests hitting in the snoop filter with a single holder of the requested data.
system.tol2bus.snoop_filter.hit_single_snoops            0                       # Number of snoops hitting in the snoop filter with a single holder of the requested data.
system.tol2bus.snoop_filter.tot_requests      5002749                       # Total number of requests made to the snoop filter.
system.tol2bus.snoop_filter.tot_snoops              0                       # Total number of snoops made to the snoop filter.
system.membus.trans_dist::ReadResp                629                       # Transaction distribution
system.membus.trans_dist::ReadExReq               233                       # Transaction distribution
system.membus.trans_dist::ReadExResp              233                       # Transaction distribution
system.membus.trans_dist::ReadSharedReq           629                       # Transaction distribution
system.membus.trans_dist::InvalidateReq             7                       # Transaction distribution
system.membus.pkt_count_system.l2.mem_side::system.mem_ctrls.port         1731                       # Packet count per connected master and slave (bytes)
system.membus.pkt_count::total                   1731                       # Packet count per connected master and slave (bytes)
system.membus.pkt_size_system.l2.mem_side::system.mem_ctrls.port        55168                       # Cumulative packet size per connected master and slave (bytes)
system.membus.pkt_size::total                   55168                       # Cumulative packet size per connected master and slave (bytes)
system.membus.snoops                                0                       # Total snoops (count)
system.membus.snoopTraffic                          0                       # Total snoop traffic (bytes)
system.membus.snoop_fanout::samples               869                       # Request fanout histogram
system.membus.snoop_fanout::mean                    0                       # Request fanout histogram
system.membus.snoop_fanout::stdev                   0                       # Request fanout histogram
system.membus.snoop_fanout::underflows              0      0.00%      0.00% # Request fanout histogram
system.membus.snoop_fanout::0                     869    100.00%    100.00% # Request fanout histogram
system.membus.snoop_fanout::1                       0      0.00%    100.00% # Request fanout histogram
system.membus.snoop_fanout::overflows               0      0.00%    100.00% # Request fanout histogram
system.membus.snoop_fanout::min_value               0                       # Request fanout histogram
system.membus.snoop_fanout::max_value               0                       # Request fanout histogram
system.membus.snoop_fanout::total                 869                       # Request fanout histogram
system.membus.reqLayer0.occupancy             1089000                       # Layer occupancy (ticks)
system.membus.reqLayer0.utilization               0.0                       # Layer utilization (%)
system.membus.respLayer1.occupancy            4595500                       # Layer occupancy (ticks)
system.membus.respLayer1.utilization              0.0                       # Layer utilization (%)
system.membus.power_state.pwrStateResidencyTicks::UNDEFINED  13410016500                       # Cumulative time (in ticks) in various power states
system.tol2bus.trans_dist::ReadResp           2501314                       # Transaction distribution
system.tol2bus.trans_dist::WritebackClean      2501192                       # Transaction distribution
system.tol2bus.trans_dist::ReadExReq              233                       # Transaction distribution
system.tol2bus.trans_dist::ReadExResp             233                       # Transaction distribution
system.tol2bus.trans_dist::ReadCleanReq       2501211                       # Transaction distribution
system.tol2bus.trans_dist::ReadSharedReq          106                       # Transaction distribution
system.tol2bus.trans_dist::InvalidateReq            7                       # Transaction distribution
system.tol2bus.trans_dist::InvalidateResp            7                       # Transaction distribution
system.tol2bus.pkt_count_system.cpu.icache.mem_side::system.l2.cpu_side      7503611                       # Packet count per connected master and slave (bytes)
system.tol2bus.pkt_count_system.cpu.dcache.mem_side::system.l2.cpu_side          692                       # Packet count per connected master and slave (bytes)
system.tol2bus.pkt_count::total               7504303                       # Packet count per connected master and slave (bytes)
system.tol2bus.pkt_size_system.cpu.icache.mem_side::system.l2.cpu_side    320153600                       # Cumulative packet size per connected master and slave (bytes)
system.tol2bus.pkt_size_system.cpu.dcache.mem_side::system.l2.cpu_side        21696                       # Cumulative packet size per connected master and slave (bytes)
system.tol2bus.pkt_size::total              320175296                       # Cumulative packet size per connected master and slave (bytes)
system.tol2bus.snoops                               0                       # Total snoops (count)
system.tol2bus.snoopTraffic                         0                       # Total snoop traffic (bytes)
system.tol2bus.snoop_fanout::samples          2501557                       # Request fanout histogram
system.tol2bus.snoop_fanout::mean            0.002262                       # Request fanout histogram
system.tol2bus.snoop_fanout::stdev           0.047509                       # Request fanout histogram
system.tol2bus.snoop_fanout::underflows             0      0.00%      0.00% # Request fanout histogram
system.tol2bus.snoop_fanout::0                2495898     99.77%     99.77% # Request fanout histogram
system.tol2bus.snoop_fanout::1                   5659      0.23%    100.00% # Request fanout histogram
system.tol2bus.snoop_fanout::2                      0      0.00%    100.00% # Request fanout histogram
system.tol2bus.snoop_fanout::overflows              0      0.00%    100.00% # Request fanout histogram
system.tol2bus.snoop_fanout::min_value              0                       # Request fanout histogram
system.tol2bus.snoop_fanout::max_value              1                       # Request fanout histogram
system.tol2bus.snoop_fanout::total            2501557                       # Request fanout histogram
system.tol2bus.reqLayer0.occupancy         5277590486                       # Layer occupancy (ticks)
system.tol2bus.reqLayer0.utilization             39.4                       # Layer utilization (%)
system.tol2bus.respLayer1.occupancy            522978                       # Layer occupancy (ticks)
system.tol2bus.respLayer1.utilization             0.0                       # Layer utilization (%)
system.tol2bus.respLayer0.occupancy        3751812000                       # Layer occupancy (ticks)
system.tol2bus.respLayer0.utilization            28.0                       # Layer utilization (%)
system.tol2bus.power_state.pwrStateResidencyTicks::UNDEFINED  13410016500                       # Cumulative time (in ticks) in various power states
system.voltage_domain.voltage                       1                       # Voltage in Volts
system.clk_domain.clock                          1000                       # Clock period in ticks
system.l2.demand_hits::.cpu.inst               813482                       # number of demand (read+write) hits
system.l2.demand_hits::.cpu.icache.prefetcher      1687206                       # number of demand (read+write) hits
system.l2.demand_hits::total                  2500688                       # number of demand (read+write) hits
system.l2.overall_hits::.cpu.inst              813482                       # number of overall hits
system.l2.overall_hits::.cpu.icache.prefetcher      1687206                       # number of overall hits
system.l2.overall_hits::total                 2500688                       # number of overall hits
system.l2.demand_misses::.cpu.inst                523                       # number of demand (read+write) misses
system.l2.demand_misses::.cpu.data                339                       # number of demand (read+write) misses
system.l2.demand_misses::total                    862                       # number of demand (read+write) misses
system.l2.overall_misses::.cpu.inst               523                       # number of overall misses
system.l2.overall_misses::.cpu.data               339                       # number of overall misses
system.l2.overall_misses::total                   862                       # number of overall misses
system.l2.demand_miss_latency::.cpu.inst     41447500                       # number of demand (read+write) miss cycles
system.l2.demand_miss_latency::.cpu.data     28824500                       # number of demand (read+write) miss cycles
system.l2.demand_miss_latency::total         70272000                       # number of demand (read+write) miss cycles
system.l2.overall_miss_latency::.cpu.inst     41447500                       # number of overall miss cycles
system.l2.overall_miss_latency::.cpu.data     28824500                       # number of overall miss cycles
system.l2.overall_miss_latency::total        70272000                       # number of overall miss cycles
system.l2.demand_accesses::.cpu.inst           814005                       # number of demand (read+write) accesses
system.l2.demand_accesses::.cpu.data              339                       # number of demand (read+write) accesses
system.l2.demand_accesses::.cpu.icache.prefetcher      1687206                       # number of demand (read+write) accesses
system.l2.demand_accesses::total              2501550                       # number of demand (read+write) accesses
system.l2.overall_accesses::.cpu.inst          814005                       # number of overall (read+write) accesses
system.l2.overall_accesses::.cpu.data             339                       # number of overall (read+write) accesses
system.l2.overall_accesses::.cpu.icache.prefetcher      1687206                       # number of overall (read+write) accesses
system.l2.overall_accesses::total             2501550                       # number of overall (read+write) accesses
system.l2.demand_miss_rate::.cpu.inst        0.000643                       # miss rate for demand accesses
system.l2.demand_miss_rate::.cpu.data               1                       # miss rate for demand accesses
system.l2.demand_miss_rate::total            0.000345                       # miss rate for demand accesses
system.l2.overall_miss_rate::.cpu.inst       0.000643                       # miss rate for overall accesses
system.l2.overall_miss_rate::.cpu.data              1                       # miss rate for overall accesses
system.l2.overall_miss_rate::total           0.000345                       # miss rate for overall accesses
system.l2.demand_avg_miss_latency::.cpu.inst 79249.521989                       # average overall miss latency
system.l2.demand_avg_miss_latency::.cpu.data 85028.023599                       # average overall miss latency
system.l2.demand_avg_miss_latency::total 81522.041763                       # average overall miss latency
system.l2.overall_avg_miss_latency::.cpu.inst 79249.521989                       # average overall miss latency
system.l2.overall_avg_miss_latency::.cpu.data 85028.023599                       # average overall miss latency
system.l2.overall_avg_miss_latency::total 81522.041763                       # average overall miss latency
system.l2.blocked_cycles::no_mshrs                  0                       # number of cycles access was blocked
system.l2.blocked_cycles::no_targets                0                       # number of cycles access was blocked
system.l2.blocked::no_mshrs                         0                       # number of cycles access was blocked
system.l2.blocked::no_targets                       0                       # number of cycles access was blocked
system.l2.avg_blocked_cycles::no_mshrs            nan                       # average number of cycles each access was blocked
system.l2.avg_blocked_cycles::no_targets          nan                       # average number of cycles each access was blocked
system.l2.demand_mshr_misses::.cpu.inst           523                       # number of demand (read+write) MSHR misses
system.l2.demand_mshr_misses::.cpu.data           339                       # number of demand (read+write) MSHR misses
system.l2.demand_mshr_misses::total               862                       # number of demand (read+write) MSHR misses
system.l2.overall_mshr_misses::.cpu.inst          523                       # number of overall MSHR misses
system.l2.overall_mshr_misses::.cpu.data          339                       # number of overall MSHR misses
system.l2.overall_mshr_misses::total              862                       # number of overall MSHR misses
system.l2.demand_mshr_miss_latency::.cpu.inst     36217500                       # number of demand (read+write) MSHR miss cycles
system.l2.demand_mshr_miss_latency::.cpu.data     25434500                       # number of demand (read+write) MSHR miss cycles
system.l2.demand_mshr_miss_latency::total     61652000                       # number of demand (read+write) MSHR miss cycles
system.l2.overall_mshr_miss_latency::.cpu.inst     36217500                       # number of overall MSHR miss cycles
system.l2.overall_mshr_miss_latency::.cpu.data     25434500                       # number of overall MSHR miss cycles
system.l2.overall_mshr_miss_latency::total     61652000                       # number of overall MSHR miss cycles
system.l2.demand_mshr_miss_rate::.cpu.inst     0.000643                       # mshr miss rate for demand accesses
system.l2.demand_mshr_miss_rate::.cpu.data            1                       # mshr miss rate for demand accesses
system.l2.demand_mshr_miss_rate::total       0.000345                       # mshr miss rate for demand accesses
system.l2.overall_mshr_miss_rate::.cpu.inst     0.000643                       # mshr miss rate for overall accesses
system.l2.overall_mshr_miss_rate::.cpu.data            1                       # mshr miss rate for overall accesses
system.l2.overall_mshr_miss_rate::total      0.000345                       # mshr miss rate for overall accesses
system.l2.demand_avg_mshr_miss_latency::.cpu.inst 69249.521989                       # average overall mshr miss latency
system.l2.demand_avg_mshr_miss_latency::.cpu.data 75028.023599                       # average overall mshr miss latency
system.l2.demand_avg_mshr_miss_latency::total 71522.041763                       # average overall mshr miss latency
system.l2.overall_avg_mshr_miss_latency::.cpu.inst 69249.521989                       # average overall mshr miss latency
system.l2.overall_avg_mshr_miss_latency::.cpu.data 75028.023599                       # average overall mshr miss latency
system.l2.overall_avg_mshr_miss_latency::total 71522.041763                       # average overall mshr miss latency
system.l2.replacements                              0                       # number of replacements
system.l2.WritebackClean_hits::.writebacks      2495533                       # number of WritebackClean hits
system.l2.WritebackClean_hits::total          2495533                       # number of WritebackClean hits
system.l2.WritebackClean_accesses::.writebacks      2495533                       # number of WritebackClean accesses(hits+misses)
system.l2.WritebackClean_accesses::total      2495533                       # number of WritebackClean accesses(hits+misses)
system.l2.ReadExReq_misses::.cpu.data             233                       # number of ReadExReq misses
system.l2.ReadExReq_misses::total                 233                       # number of ReadExReq misses
system.l2.ReadExReq_miss_latency::.cpu.data     19750500                       # number of ReadExReq miss cycles
system.l2.ReadExReq_miss_latency::total      19750500                       # number of ReadExReq miss cycles
system.l2.ReadExReq_accesses::.cpu.data           233                       # number of ReadExReq accesses(hits+misses)
system.l2.ReadExReq_accesses::total               233                       # number of ReadExReq accesses(hits+misses)
system.l2.ReadExReq_miss_rate::.cpu.data            1                       # miss rate for ReadExReq accesses
system.l2.ReadExReq_miss_rate::total                1                       # miss rate for ReadExReq accesses
system.l2.ReadExReq_avg_miss_latency::.cpu.data 84766.094421                       # average ReadExReq miss latency
system.l2.ReadExReq_avg_miss_latency::total 84766.094421                       # average ReadExReq miss latency
system.l2.ReadExReq_mshr_misses::.cpu.data          233                       # number of ReadExReq MSHR misses
system.l2.ReadExReq_mshr_misses::total            233                       # number of ReadExReq MSHR misses
system.l2.ReadExReq_mshr_miss_latency::.cpu.data     17420500                       # number of ReadExReq MSHR miss cycles
system.l2.ReadExReq_mshr_miss_latency::total     17420500                       # number of ReadExReq MSHR miss cycles
system.l2.ReadExReq_mshr_miss_rate::.cpu.data            1                       # mshr miss rate for ReadExReq accesses
system.l2.ReadExReq_mshr_miss_rate::total            1                       # mshr miss rate for ReadExReq accesses
system.l2.ReadExReq_avg_mshr_miss_latency::.cpu.data 74766.094421                       # average ReadExReq mshr miss latency
system.l2.ReadExReq_avg_mshr_miss_latency::total 74766.094421                       # average ReadExReq mshr miss latency
system.l2.ReadCleanReq_hits::.cpu.inst         813482                       # number of ReadCleanReq hits
system.l2.ReadCleanReq_hits::.cpu.icache.prefetcher      1687206                       # number of ReadCleanReq hits
system.l2.ReadCleanReq_hits::total            2500688                       # number of ReadCleanReq hits
system.l2.ReadCleanReq_misses::.cpu.inst          523                       # number of ReadCleanReq misses
system.l2.ReadCleanReq_misses::total              523                       # number of ReadCleanReq misses
system.l2.ReadCleanReq_miss_latency::.cpu.inst     41447500                       # number of ReadCleanReq miss cycles
system.l2.ReadCleanReq_miss_latency::total     41447500                       # number of ReadCleanReq miss cycles
system.l2.ReadCleanReq_accesses::.cpu.inst       814005                       # number of ReadCleanReq accesses(hits+misses)
system.l2.ReadCleanReq_accesses::.cpu.icache.prefetcher      1687206                       # number of ReadCleanReq accesses(hits+misses)
system.l2.ReadCleanReq_accesses::total        2501211                       # number of ReadCleanReq accesses(hits+misses)
system.l2.ReadCleanReq_miss_rate::.cpu.inst     0.000643                       # miss rate for ReadCleanReq accesses
system.l2.ReadCleanReq_miss_rate::total      0.000209                       # miss rate for ReadCleanReq accesses
system.l2.ReadCleanReq_avg_miss_latency::.cpu.inst 79249.521989                       # average ReadCleanReq miss latency
system.l2.ReadCleanReq_avg_miss_latency::total 79249.521989                       # average ReadCleanReq miss latency
system.l2.ReadCleanReq_mshr_misses::.cpu.inst          523                       # number of ReadCleanReq MSHR misses
system.l2.ReadCleanReq_mshr_misses::total          523                       # number of ReadCleanReq MSHR misses
system.l2.ReadCleanReq_mshr_miss_latency::.cpu.inst     36217500                       # number of ReadCleanReq MSHR miss cycles
system.l2.ReadCleanReq_mshr_miss_latency::total     36217500                       # number of ReadCleanReq MSHR miss cycles
system.l2.ReadCleanReq_mshr_miss_rate::.cpu.inst     0.000643                       # mshr miss rate for ReadCleanReq accesses
system.l2.ReadCleanReq_mshr_miss_rate::total     0.000209                       # mshr miss rate for ReadCleanReq accesses
[...]
system.cpu.dcache.overall_misses::total          1286                       # number of overall misses
system.cpu.dcache.demand_miss_latency::.cpu.data     96670461                       # number of demand (read+write) miss cycles
system.cpu.dcache.demand_miss_latency::total     96670461                       # number of demand (read+write) miss cycles
system.cpu.dcache.overall_miss_latency::.cpu.data     96670461                       # number of overall miss cycles
system.cpu.dcache.overall_miss_latency::total     96670461                       # number of overall miss cycles
system.cpu.dcache.demand_accesses::.cpu.data      3128874                       # number of demand (read+write) accesses
system.cpu.dcache.demand_accesses::total      3128874                       # number of demand (read+write) accesses
system.cpu.dcache.overall_accesses::.cpu.data      3140304                       # number of overall (read+write) accesses
system.cpu.dcache.overall_accesses::total      3140304                       # number of overall (read+write) accesses
system.cpu.dcache.demand_miss_rate::.cpu.data     0.000410                       # miss rate for demand accesses
system.cpu.dcache.demand_miss_rate::total     0.000410                       # miss rate for demand accesses
system.cpu.dcache.overall_miss_rate::.cpu.data     0.000410                       # miss rate for overall accesses
system.cpu.dcache.overall_miss_rate::total     0.000410                       # miss rate for overall accesses
system.cpu.dcache.demand_avg_miss_latency::.cpu.data 75288.521028                       # average overall miss latency
system.cpu.dcache.demand_avg_miss_latency::total 75288.521028                       # average overall miss latency
system.cpu.dcache.overall_avg_miss_latency::.cpu.data 75171.431571                       # average overall miss latency
system.cpu.dcache.overall_avg_miss_latency::total 75171.431571                       # average overall miss latency
system.cpu.dcache.blocked_cycles::no_mshrs         2181                       # number of cycles access was blocked
system.cpu.dcache.blocked_cycles::no_targets            0                       # number of cycles access was blocked
system.cpu.dcache.blocked::no_mshrs                59                       # number of cycles access was blocked
system.cpu.dcache.blocked::no_targets               0                       # number of cycles access was blocked
system.cpu.dcache.avg_blocked_cycles::no_mshrs    36.966102                       # average number of cycles each access was blocked
system.cpu.dcache.avg_blocked_cycles::no_targets          nan                       # average number of cycles each access was blocked
system.cpu.dcache.demand_mshr_hits::.cpu.data          941                       # number of demand (read+write) MSHR hits
system.cpu.dcache.demand_mshr_hits::total          941                       # number of demand (read+write) MSHR hits
system.cpu.dcache.overall_mshr_hits::.cpu.data          941                       # number of overall MSHR hits
system.cpu.dcache.overall_mshr_hits::total          941                       # number of overall MSHR hits
system.cpu.dcache.demand_mshr_misses::.cpu.data          343                       # number of demand (read+write) MSHR misses
system.cpu.dcache.demand_mshr_misses::total          343                       # number of demand (read+write) MSHR misses
system.cpu.dcache.overall_mshr_misses::.cpu.data          345                       # number of overall MSHR misses
system.cpu.dcache.overall_mshr_misses::total          345                       # number of overall MSHR misses
system.cpu.dcache.demand_mshr_miss_latency::.cpu.data     29352494                       # number of demand (read+write) MSHR miss cycles
system.cpu.dcache.demand_mshr_miss_latency::total     29352494                       # number of demand (read+write) MSHR miss cycles
system.cpu.dcache.overall_mshr_miss_latency::.cpu.data     29511994                       # number of overall MSHR miss cycles
system.cpu.dcache.overall_mshr_miss_latency::total     29511994                       # number of overall MSHR miss cycles
system.cpu.dcache.demand_mshr_miss_rate::.cpu.data     0.000110                       # mshr miss rate for demand accesses
system.cpu.dcache.demand_mshr_miss_rate::total     0.000110                       # mshr miss rate for demand accesses
system.cpu.dcache.overall_mshr_miss_rate::.cpu.data     0.000110                       # mshr miss rate for overall accesses
system.cpu.dcache.overall_mshr_miss_rate::total     0.000110                       # mshr miss rate for overall accesses
system.cpu.dcache.demand_avg_mshr_miss_latency::.cpu.data 85575.784257                       # average overall mshr miss latency
system.cpu.dcache.demand_avg_mshr_miss_latency::total 85575.784257                       # average overall mshr miss latency
system.cpu.dcache.overall_avg_mshr_miss_latency::.cpu.data 85542.011594                       # average overall mshr miss latency
system.cpu.dcache.overall_avg_mshr_miss_latency::total 85542.011594                       # average overall mshr miss latency
system.cpu.dcache.replacements                      0                       # number of replacements
system.cpu.dcache.ReadReq_hits::.cpu.data      1618309                       # number of ReadReq hits
system.cpu.dcache.ReadReq_hits::total         1618309                       # number of ReadReq hits
system.cpu.dcache.ReadReq_misses::.cpu.data          224                       # number of ReadReq misses
system.cpu.dcache.ReadReq_misses::total           224                       # number of ReadReq misses
system.cpu.dcache.ReadReq_miss_latency::.cpu.data     17182500                       # number of ReadReq miss cycles
system.cpu.dcache.ReadReq_miss_latency::total     17182500                       # number of ReadReq miss cycles
system.cpu.dcache.ReadReq_accesses::.cpu.data      1618533                       # number of ReadReq accesses(hits+misses)
system.cpu.dcache.ReadReq_accesses::total      1618533                       # number of ReadReq accesses(hits+misses)
system.cpu.dcache.ReadReq_miss_rate::.cpu.data     0.000138                       # miss rate for ReadReq accesses
system.cpu.dcache.ReadReq_miss_rate::total     0.000138                       # miss rate for ReadReq accesses
system.cpu.dcache.ReadReq_avg_miss_latency::.cpu.data 76707.589286                       # average ReadReq miss latency
system.cpu.dcache.ReadReq_avg_miss_latency::total 76707.589286                       # average ReadReq miss latency
system.cpu.dcache.ReadReq_mshr_hits::.cpu.data          121                       # number of ReadReq MSHR hits
system.cpu.dcache.ReadReq_mshr_hits::total          121                       # number of ReadReq MSHR hits
system.cpu.dcache.ReadReq_mshr_misses::.cpu.data          103                       # number of ReadReq MSHR misses
system.cpu.dcache.ReadReq_mshr_misses::total          103                       # number of ReadReq MSHR misses
system.cpu.dcache.ReadReq_mshr_miss_latency::.cpu.data      8999500                       # number of ReadReq MSHR miss cycles
system.cpu.dcache.ReadReq_mshr_miss_latency::total      8999500                       # number of ReadReq MSHR miss cycles
system.cpu.dcache.ReadReq_mshr_miss_rate::.cpu.data     0.000064                       # mshr miss rate for ReadReq accesses
system.cpu.dcache.ReadReq_mshr_miss_rate::total     0.000064                       # mshr miss rate for ReadReq accesses
system.cpu.dcache.ReadReq_avg_mshr_miss_latency::.cpu.data 87373.786408                       # average ReadReq mshr miss latency
system.cpu.dcache.ReadReq_avg_mshr_miss_latency::total 87373.786408                       # average ReadReq mshr miss latency
system.cpu.dcache.WriteReq_hits::.cpu.data      1509281                       # number of WriteReq hits
system.cpu.dcache.WriteReq_hits::total        1509281                       # number of WriteReq hits
system.cpu.dcache.WriteReq_misses::.cpu.data         1053                       # number of WriteReq misses
system.cpu.dcache.WriteReq_misses::total         1053                       # number of WriteReq misses
system.cpu.dcache.WriteReq_miss_latency::.cpu.data     79265463                       # number of WriteReq miss cycles
system.cpu.dcache.WriteReq_miss_latency::total     79265463                       # number of WriteReq miss cycles
system.cpu.dcache.WriteReq_accesses::.cpu.data      1510334                       # number of WriteReq accesses(hits+misses)
system.cpu.dcache.WriteReq_accesses::total      1510334                       # number of WriteReq accesses(hits+misses)
system.cpu.dcache.WriteReq_miss_rate::.cpu.data     0.000697                       # miss rate for WriteReq accesses
system.cpu.dcache.WriteReq_miss_rate::total     0.000697                       # miss rate for WriteReq accesses
system.cpu.dcache.WriteReq_avg_miss_latency::.cpu.data 75275.843305                       # average WriteReq miss latency
system.cpu.dcache.WriteReq_avg_miss_latency::total 75275.843305                       # average WriteReq miss latency
system.cpu.dcache.WriteReq_mshr_hits::.cpu.data          820                       # number of WriteReq MSHR hits
system.cpu.dcache.WriteReq_mshr_hits::total          820                       # number of WriteReq MSHR hits
system.cpu.dcache.WriteReq_mshr_misses::.cpu.data          233                       # number of WriteReq MSHR misses
system.cpu.dcache.WriteReq_mshr_misses::total          233                       # number of WriteReq MSHR misses
system.cpu.dcache.WriteReq_mshr_miss_latency::.cpu.data     20137496                       # number of WriteReq MSHR miss cycles
system.cpu.dcache.WriteReq_mshr_miss_latency::total     20137496                       # number of WriteReq MSHR miss cycles
system.cpu.dcache.WriteReq_mshr_miss_rate::.cpu.data     0.000154                       # mshr miss rate for WriteReq accesses
system.cpu.dcache.WriteReq_mshr_miss_rate::total     0.000154                       # mshr miss rate for WriteReq accesses
system.cpu.dcache.WriteReq_avg_mshr_miss_latency::.cpu.data 86427.021459                       # average WriteReq mshr miss latency
system.cpu.dcache.WriteReq_avg_mshr_miss_latency::total 86427.021459                       # average WriteReq mshr miss latency
system.cpu.dcache.SoftPFReq_hits::.cpu.data        11428                       # number of SoftPFReq hits
system.cpu.dcache.SoftPFReq_hits::total         11428                       # number of SoftPFReq hits
system.cpu.dcache.SoftPFReq_misses::.cpu.data            2                       # number of SoftPFReq misses
system.cpu.dcache.SoftPFReq_misses::total            2                       # number of SoftPFReq misses
system.cpu.dcache.SoftPFReq_accesses::.cpu.data        11430                       # number of SoftPFReq accesses(hits+misses)
system.cpu.dcache.SoftPFReq_accesses::total        11430                       # number of SoftPFReq accesses(hits+misses)
system.cpu.dcache.SoftPFReq_miss_rate::.cpu.data     0.000175                       # miss rate for SoftPFReq accesses
system.cpu.dcache.SoftPFReq_miss_rate::total     0.000175                       # miss rate for SoftPFReq accesses
system.cpu.dcache.SoftPFReq_mshr_misses::.cpu.data            2                       # number of SoftPFReq MSHR misses
system.cpu.dcache.SoftPFReq_mshr_misses::total            2                       # number of SoftPFReq MSHR misses
system.cpu.dcache.SoftPFReq_mshr_miss_latency::.cpu.data       159500                       # number of SoftPFReq MSHR miss cycles
system.cpu.dcache.SoftPFReq_mshr_miss_latency::total       159500                       # number of SoftPFReq MSHR miss cycles
system.cpu.dcache.SoftPFReq_mshr_miss_rate::.cpu.data     0.000175                       # mshr miss rate for SoftPFReq accesses
system.cpu.dcache.SoftPFReq_mshr_miss_rate::total     0.000175                       # mshr miss rate for SoftPFReq accesses
system.cpu.dcache.SoftPFReq_avg_mshr_miss_latency::.cpu.data        79750                       # average SoftPFReq mshr miss latency
system.cpu.dcache.SoftPFReq_avg_mshr_miss_latency::total        79750                       # average SoftPFReq mshr miss latency
system.cpu.dcache.WriteLineReq_misses::.cpu.data            7                       # number of WriteLineReq misses
system.cpu.dcache.WriteLineReq_misses::total            7                       # number of WriteLineReq misses
system.cpu.dcache.WriteLineReq_miss_latency::.cpu.data       222498                       # number of WriteLineReq miss cycles
system.cpu.dcache.WriteLineReq_miss_latency::total       222498                       # number of WriteLineReq miss cycles
system.cpu.dcache.WriteLineReq_accesses::.cpu.data            7                       # number of WriteLineReq accesses(hits+misses)
system.cpu.dcache.WriteLineReq_accesses::total            7                       # number of WriteLineReq accesses(hits+misses)
system.cpu.dcache.WriteLineReq_miss_rate::.cpu.data            1                       # miss rate for WriteLineReq accesses
system.cpu.dcache.WriteLineReq_miss_rate::total            1                       # miss rate for WriteLineReq accesses
system.cpu.dcache.WriteLineReq_avg_miss_latency::.cpu.data 31785.428571                       # average WriteLineReq miss latency
system.cpu.dcache.WriteLineReq_avg_miss_latency::total 31785.428571                       # average WriteLineReq miss latency
system.cpu.dcache.WriteLineReq_mshr_misses::.cpu.data            7                       # number of WriteLineReq MSHR misses
system.cpu.dcache.WriteLineReq_mshr_misses::total            7                       # number of WriteLineReq MSHR misses
system.cpu.dcache.WriteLineReq_mshr_miss_latency::.cpu.data       215498                       # number of WriteLineReq MSHR miss cycles
system.cpu.dcache.WriteLineReq_mshr_miss_latency::total       215498                       # number of WriteLineReq MSHR miss cycles
system.cpu.dcache.WriteLineReq_mshr_miss_rate::.cpu.data            1                       # mshr miss rate for WriteLineReq accesses
system.cpu.dcache.WriteLineReq_mshr_miss_rate::total            1                       # mshr miss rate for WriteLineReq accesses
system.cpu.dcache.WriteLineReq_avg_mshr_miss_latency::.cpu.data 30785.428571                       # average WriteLineReq mshr miss latency
system.cpu.dcache.WriteLineReq_avg_mshr_miss_latency::total 30785.428571                       # average WriteLineReq mshr miss latency
system.cpu.dcache.LoadLockedReq_hits::.cpu.data        11425                       # number of LoadLockedReq hits
system.cpu.dcache.LoadLockedReq_hits::total        11425                       # number of LoadLockedReq hits
system.cpu.dcache.LoadLockedReq_misses::.cpu.data            2                       # number of LoadLockedReq misses
system.cpu.dcache.LoadLockedReq_misses::total            2                       # number of LoadLockedReq misses
system.cpu.dcache.LoadLockedReq_miss_latency::.cpu.data       168500                       # number of LoadLockedReq miss cycles
system.cpu.dcache.LoadLockedReq_miss_latency::total       168500                       # number of LoadLockedReq miss cycles
system.cpu.dcache.LoadLockedReq_accesses::.cpu.data        11427                       # number of LoadLockedReq accesses(hits+misses)
system.cpu.dcache.LoadLockedReq_accesses::total        11427                       # number of LoadLockedReq accesses(hits+misses)
system.cpu.dcache.LoadLockedReq_miss_rate::.cpu.data     0.000175                       # miss rate for LoadLockedReq accesses
system.cpu.dcache.LoadLockedReq_miss_rate::total     0.000175                       # miss rate for LoadLockedReq accesses
system.cpu.dcache.LoadLockedReq_avg_miss_latency::.cpu.data        84250                       # average LoadLockedReq miss latency
system.cpu.dcache.LoadLockedReq_avg_miss_latency::total        84250                       # average LoadLockedReq miss latency
system.cpu.dcache.LoadLockedReq_mshr_hits::.cpu.data            1                       # number of LoadLockedReq MSHR hits
system.cpu.dcache.LoadLockedReq_mshr_hits::total            1                       # number of LoadLockedReq MSHR hits
system.cpu.dcache.LoadLockedReq_mshr_misses::.cpu.data            1                       # number of LoadLockedReq MSHR misses
system.cpu.dcache.LoadLockedReq_mshr_misses::total            1                       # number of LoadLockedReq MSHR misses
system.cpu.dcache.LoadLockedReq_mshr_miss_latency::.cpu.data        81000                       # number of LoadLockedReq MSHR miss cycles
system.cpu.dcache.LoadLockedReq_mshr_miss_latency::total        81000                       # number of LoadLockedReq MSHR miss cycles
system.cpu.dcache.LoadLockedReq_mshr_miss_rate::.cpu.data     0.000088                       # mshr miss rate for LoadLockedReq accesses
system.cpu.dcache.LoadLockedReq_mshr_miss_rate::total     0.000088                       # mshr miss rate for LoadLockedReq accesses
system.cpu.dcache.LoadLockedReq_avg_mshr_miss_latency::.cpu.data        81000                       # average LoadLockedReq mshr miss latency
system.cpu.dcache.LoadLockedReq_avg_mshr_miss_latency::total        81000                       # average LoadLockedReq mshr miss latency
system.cpu.dcache.StoreCondReq_hits::.cpu.data        11427                       # number of StoreCondReq hits
system.cpu.dcache.StoreCondReq_hits::total        11427                       # number of StoreCondReq hits
system.cpu.dcache.StoreCondReq_accesses::.cpu.data        11427                       # number of StoreCondReq accesses(hits+misses)
system.cpu.dcache.StoreCondReq_accesses::total        11427                       # number of StoreCondReq accesses(hits+misses)
system.cpu.dcache.power_state.pwrStateResidencyTicks::UNDEFINED  13410016500                       # Cumulative time (in ticks) in various power states
system.cpu.dcache.tags.tagsinuse           334.993626                       # Cycle average of tags in use
system.cpu.dcache.tags.total_refs             3162216                       # Total number of references to valid blocks.
system.cpu.dcache.tags.sampled_refs               346                       # Sample count of references to valid blocks.
system.cpu.dcache.tags.avg_refs           9139.352601                       # Average number of references to valid blocks.
system.cpu.dcache.tags.warmup_cycle            176500                       # Cycle when the warmup percentage was hit.
system.cpu.dcache.tags.occ_blocks::.cpu.data   334.993626                       # Average occupied blocks per requestor
system.cpu.dcache.tags.occ_percent::.cpu.data     0.327142                       # Average percentage of cache occupancy
system.cpu.dcache.tags.occ_percent::total     0.327142                       # Average percentage of cache occupancy
system.cpu.dcache.tags.occ_task_id_blocks::1024          346                       # Occupied blocks per task id
system.cpu.dcache.tags.age_task_id_blocks_1024::4          346                       # Occupied blocks per task id
system.cpu.dcache.tags.occ_task_id_percent::1024     0.337891                       # Percentage of cache occupancy per task id
system.cpu.dcache.tags.tag_accesses           6326662                       # Number of tag accesses
system.cpu.dcache.tags.data_accesses          6326662                       # Number of data accesses
system.cpu.dcache.tags.power_state.pwrStateResidencyTicks::UNDEFINED  13410016500                       # Cumulative time (in ticks) in various power states
system.cpu.power_state.pwrStateResidencyTicks::ON  13410016500                       # Cumulative time (in ticks) in various power states

---------- End Simulation Statistics   ----------
