
---------- Begin Simulation Statistics ----------
final_tick                                 2971642000                       # Number of ticks from beginning of simulation (restored from checkpoints and never reset)
host_inst_rate                                 219732                       # Simulator instruction rate (inst/s)
host_mem_usage                                 879280                       # Number of bytes of host memory used
host_op_rate                                   245435                       # Simulator op (including micro ops) rate (op/s)
host_seconds                                    37.09                       # Real time elapsed on the host
host_tick_rate                               80116973                       # Simulator tick rate (ticks/s)
sim_freq                                 1000000000000                       # Frequency of simulated ticks
sim_insts                                     8150103                       # Number of instructions simulated
sim_ops                                       9103510                       # Number of ops (including micro ops) simulated
sim_seconds                                  0.002972                       # Number of seconds simulated
sim_ticks                                  2971642000                       # Number of ticks simulated
system.cpu.branchPred.BTBCorrect                    0                       # Number of correct BTB predictions (this stat may not work properly.
system.cpu.branchPred.BTBHitPct             97.283901                       # BTB Hit Percentage
system.cpu.branchPred.BTBHits                  925775                       # Number of BTB hits
system.cpu.branchPred.BTBLookups               951622                       # Number of BTB lookups
system.cpu.branchPred.RASInCorrect                  9                       # Number of incorrect RAS predictions.
system.cpu.branchPred.condIncorrect             68522                       # Number of conditional branches incorrect
system.cpu.branchPred.condPredicted           1672055                       # Number of conditional branches predicted
system.cpu.branchPred.indirectHits              30266                       # Number of indirect target hits.
system.cpu.branchPred.indirectLookups           33790                       # Number of indirect predictor lookups.
system.cpu.branchPred.indirectMisses             3524                       # Number of indirect misses.
system.cpu.branchPred.lookups                 2232918                       # Number of BP lookups
system.cpu.branchPred.usedRAS                  215226                       # Number of times the RAS was used to get a target.
system.cpu.branchPredindirectMispredicted         5217                       # Number of mispredicted indirect branches.
system.cpu.cc_regfile_reads                   4418997                       # number of cc regfile reads
system.cpu.cc_regfile_writes                  4384431                       # number of cc regfile writes
system.cpu.commit.amos                              0                       # Number of atomic instructions committed
system.cpu.commit.branchMispredicts             63165                       # The number of times a branch was mispredicted
system.cpu.commit.branches                    1868928                       # Number of branches committed
system.cpu.commit.bw_lim_events                476166                       # number cycles where commit BW limit reached
system.cpu.commit.commitNonSpecStalls             116                       # The number of times commit has been forced to stall to communicate backwards
system.cpu.commit.commitSquashedInsts         1066645                       # The number of squashed insts skipped by commit
system.cpu.commit.committedInsts              8164178                       # Number of instructions committed
system.cpu.commit.committedOps                9117585                       # Number of ops (including micro ops) committed
system.cpu.commit.committed_per_cycle::samples      5419633                       # Number of insts commited each cycle
system.cpu.commit.committed_per_cycle::mean     1.682325                       # Number of insts commited each cycle
system.cpu.commit.committed_per_cycle::stdev     2.477339                       # Number of insts commited each cycle
system.cpu.commit.committed_per_cycle::underflows            0      0.00%      0.00% # Number of insts commited each cycle
system.cpu.commit.committed_per_cycle::0      2577328     47.56%     47.56% # Number of insts commited each cycle
system.cpu.commit.committed_per_cycle::1      1084958     20.02%     67.57% # Number of insts commited each cycle
system.cpu.commit.committed_per_cycle::2       596985     11.02%     78.59% # Number of insts commited each cycle
system.cpu.commit.committed_per_cycle::3       241927      4.46%     83.05% # Number of insts commited each cycle
system.cpu.commit.committed_per_cycle::4       133918      2.47%     85.52% # Number of insts commited each cycle
system.cpu.commit.committed_per_cycle::5       150483      2.78%     88.30% # Number of insts commited each cycle
system.cpu.commit.committed_per_cycle::6        89615      1.65%     89.95% # Number of insts commited each cycle
system.cpu.commit.committed_per_cycle::7        68253      1.26%     91.21% # Number of insts commited each cycle
system.cpu.commit.committed_per_cycle::8       476166      8.79%    100.00% # Number of insts commited each cycle
system.cpu.commit.committed_per_cycle::overflows            0      0.00%    100.00% # Number of insts commited each cycle
system.cpu.commit.committed_per_cycle::min_value            0                       # Number of insts commited each cycle
system.cpu.commit.committed_per_cycle::max_value            8                       # Number of insts commited each cycle
system.cpu.commit.committed_per_cycle::total      5419633                       # Number of insts commited each cycle
system.cpu.commit.fp_insts                          0                       # Number of committed floating point instructions.
system.cpu.commit.function_calls               194519                       # Number of function calls committed.
system.cpu.commit.int_insts                   8057694                       # Number of committed integer instructions.
system.cpu.commit.loads                       1397081                       # Number of loads committed
system.cpu.commit.membars                          92                       # Number of memory barriers committed
system.cpu.commit.op_class_0::No_OpClass           13      0.00%      0.00% # Class of committed instruction
system.cpu.commit.op_class_0::IntAlu          6838899     75.01%     75.01% # Class of committed instruction
system.cpu.commit.op_class_0::IntMult           25663      0.28%     75.29% # Class of committed instruction
system.cpu.commit.op_class_0::IntDiv             9435      0.10%     75.39% # Class of committed instruction
system.cpu.commit.op_class_0::FloatAdd              0      0.00%     75.39% # Class of committed instruction
system.cpu.commit.op_class_0::FloatCmp              0      0.00%     75.39% # Class of committed instruction
system.cpu.commit.op_class_0::FloatCvt              0      0.00%     75.39% # Class of committed instruction
system.cpu.commit.op_class_0::FloatMult             0      0.00%     75.39% # Class of committed instruction
system.cpu.commit.op_class_0::FloatMultAcc            0      0.00%     75.39% # Class of committed instruction
system.cpu.commit.op_class_0::FloatDiv              0      0.00%     75.39% # Class of committed instruction
system.cpu.commit.op_class_0::FloatMisc             0      0.00%     75.39% # Class of committed instruction
system.cpu.commit.op_class_0::FloatSqrt             0      0.00%     75.39% # Class of committed instruction
system.cpu.commit.op_class_0::SimdAdd              39      0.00%     75.39% # Class of committed instruction
system.cpu.commit.op_class_0::SimdAddAcc            0      0.00%     75.39% # Class of committed instruction
system.cpu.commit.op_class_0::SimdAlu              51      0.00%     75.39% # Class of committed instruction
system.cpu.commit.op_class_0::SimdCmp              52      0.00%     75.39% # Class of committed instruction
system.cpu.commit.op_class_0::SimdCvt               0      0.00%     75.39% # Class of committed instruction
system.cpu.commit.op_class_0::SimdMisc           3259      0.04%     75.43% # Class of committed instruction
system.cpu.commit.op_class_0::SimdMult              0      0.00%     75.43% # Class of committed instruction
system.cpu.commit.op_class_0::SimdMultAcc            0      0.00%     75.43% # Class of committed instruction
system.cpu.commit.op_class_0::SimdShift             0      0.00%     75.43% # Class of committed instruction
system.cpu.commit.op_class_0::SimdShiftAcc            0      0.00%     75.43% # Class of committed instruction
system.cpu.commit.op_class_0::SimdDiv               0      0.00%     75.43% # Class of committed instruction
system.cpu.commit.op_class_0::SimdSqrt              0      0.00%     75.43% # Class of committed instruction
system.cpu.commit.op_class_0::SimdFloatAdd            0      0.00%     75.43% # Class of committed instruction
system.cpu.commit.op_class_0::SimdFloatAlu            0      0.00%     75.43% # Class of committed instruction
system.cpu.commit.op_class_0::SimdFloatCmp            0      0.00%     75.43% # Class of committed instruction
system.cpu.commit.op_class_0::SimdFloatCvt            0      0.00%     75.43% # Class of committed instruction
system.cpu.commit.op_class_0::SimdFloatDiv            0      0.00%     75.43% # Class of committed instruction
system.cpu.commit.op_class_0::SimdFloatMisc            0      0.00%     75.43% # Class of committed instruction
system.cpu.commit.op_class_0::SimdFloatMult            0      0.00%     75.43% # Class of committed instruction
system.cpu.commit.op_class_0::SimdFloatMultAcc            0      0.00%     75.43% # Class of committed instruction
system.cpu.commit.op_class_0::SimdFloatSqrt            0      0.00%     75.43% # Class of committed instruction
system.cpu.commit.op_class_0::SimdReduceAdd            0      0.00%     75.43% # Class of committed instruction
system.cpu.commit.op_class_0::SimdReduceAlu            0      0.00%     75.43% # Class of committed instruction
system.cpu.commit.op_class_0::SimdReduceCmp            0      0.00%     75.43% # Class of committed instruction
system.cpu.commit.op_class_0::SimdFloatReduceAdd            0      0.00%     75.43% # Class of committed instruction
system.cpu.commit.op_class_0::SimdFloatReduceCmp            0      0.00%     75.43% # Class of committed instruction
system.cpu.commit.op_class_0::SimdAes               0      0.00%     75.43% # Class of committed instruction
system.cpu.commit.op_class_0::SimdAesMix            0      0.00%     75.43% # Class of committed instruction
system.cpu.commit.op_class_0::SimdSha1Hash            0      0.00%     75.43% # Class of committed instruction
system.cpu.commit.op_class_0::SimdSha1Hash2            0      0.00%     75.43% # Class of committed instruction
system.cpu.commit.op_class_0::SimdSha256Hash            0      0.00%     75.43% # Class of committed instruction
system.cpu.commit.op_class_0::SimdSha256Hash2            0      0.00%     75.43% # Class of committed instruction
system.cpu.commit.op_class_0::SimdShaSigma2            0      0.00%     75.43% # Class of committed instruction
system.cpu.commit.op_class_0::SimdShaSigma3            0      0.00%     75.43% # Class of committed instruction
system.cpu.commit.op_class_0::SimdPredAlu            0      0.00%     75.43% # Class of committed instruction
system.cpu.commit.op_class_0::MemRead         1397081     15.32%     90.75% # Class of committed instruction
system.cpu.commit.op_class_0::MemWrite         843093      9.25%    100.00% # Class of committed instruction
system.cpu.commit.op_class_0::FloatMemRead            0      0.00%    100.00% # Class of committed instruction
system.cpu.commit.op_class_0::FloatMemWrite            0      0.00%    100.00% # Class of committed instruction
system.cpu.commit.op_class_0::IprAccess             0      0.00%    100.00% # Class of committed instruction
system.cpu.commit.op_class_0::InstPrefetch            0      0.00%    100.00% # Class of committed instruction
system.cpu.commit.op_class_0::total           9117585                       # Class of committed instruction
system.cpu.commit.refs                        2240174                       # Number of memory references committed
system.cpu.commit.swp_count                         0                       # Number of s/w prefetches committed
system.cpu.commit.vec_insts                     84554                       # Number of committed Vector instructions.
system.cpu.committedInsts                     8150103                       # Number of Instructions Simulated
system.cpu.committedOps                       9103510                       # Number of Ops (including micro ops) Simulated
system.cpu.cpi                               0.729229                       # CPI: Cycles Per Instruction
system.cpu.cpi_total                         0.729229                       # CPI: Total CPI of All Threads
system.cpu.decode.BlockedCycles                793106                       # Number of cycles decode is blocked
system.cpu.decode.BranchMispred                  5403                       # Number of times decode detected a branch misprediction
system.cpu.decode.BranchResolved               913956                       # Number of times decode resolved a branch
system.cpu.decode.DecodedInsts               10655941                       # Number of instructions handled by decode
system.cpu.decode.IdleCycles                  2562424                       # Number of cycles decode is idle
system.cpu.decode.RunCycles                   2125130                       # Number of cycles decode is running
system.cpu.decode.SquashCycles                  63554                       # Number of cycles decode is squashing
system.cpu.decode.SquashedInsts                 20894                       # Number of squashed instructions handled by decode
system.cpu.decode.UnblockCycles                 43007                       # Number of cycles decode is unblocking
system.cpu.dtb.accesses                             0                       # DTB accesses
system.cpu.dtb.align_faults                         0                       # Number of TLB faults due to alignment restrictions
system.cpu.dtb.domain_faults                        0                       # Number of TLB faults due to domain restrictions
system.cpu.dtb.flush_entries                        0                       # Number of entries that have been flushed from TLB
system.cpu.dtb.flush_tlb                            0                       # Number of times complete TLB was flushed
system.cpu.dtb.flush_tlb_asid                       0                       # Number of times TLB was flushed by ASID
system.cpu.dtb.flush_tlb_mva                        0                       # Number of times TLB was flushed by MVA
system.cpu.dtb.flush_tlb_mva_asid                   0                       # Number of times TLB was flushed by MVA & ASID
system.cpu.dtb.hits                                 0                       # DTB hits
system.cpu.dtb.inst_accesses                        0                       # ITB inst accesses
system.cpu.dtb.inst_hits                            0                       # ITB inst hits
system.cpu.dtb.inst_misses                          0                       # ITB inst misses
system.cpu.dtb.misses                               0                       # DTB misses
system.cpu.dtb.perms_faults                         0                       # Number of TLB faults due to permissions restrictions
system.cpu.dtb.prefetch_faults                      0                       # Number of TLB faults due to prefetch
system.cpu.dtb.read_accesses                        0                       # DTB read accesses
system.cpu.dtb.read_hits                            0                       # DTB read hits
system.cpu.dtb.read_misses                          0                       # DTB read misses
system.cpu.dtb.stage2_mmu.stage2_tlb.accesses            0                       # DTB accesses
system.cpu.dtb.stage2_mmu.stage2_tlb.align_faults            0                       # Number of TLB faults due to alignment restrictions
system.cpu.dtb.stage2_mmu.stage2_tlb.domain_faults            0                       # Number of TLB faults due to domain restrictions
system.cpu.dtb.stage2_mmu.stage2_tlb.flush_entries            0                       # Number of entries that have been flushed from TLB
system.cpu.dtb.stage2_mmu.stage2_tlb.flush_tlb            0                       # Number of times complete TLB was flushed
system.cpu.dtb.stage2_mmu.stage2_tlb.flush_tlb_asid            0                       # Number of times TLB was flushed by ASID
system.cpu.dtb.stage2_mmu.stage2_tlb.flush_tlb_mva            0                       # Number of times TLB was flushed by MVA
system.cpu.dtb.stage2_mmu.stage2_tlb.flush_tlb_mva_asid            0                       # Number of times TLB was flushed by MVA & ASID
system.cpu.dtb.stage2_mmu.stage2_tlb.hits            0                       # DTB hits
system.cpu.dtb.stage2_mmu.stage2_tlb.inst_accesses            0                       # ITB inst accesses
system.cpu.dtb.stage2_mmu.stage2_tlb.inst_hits            0                       # ITB inst hits
system.cpu.dtb.stage2_mmu.stage2_tlb.inst_misses            0                       # ITB inst misses
system.cpu.dtb.stage2_mmu.stage2_tlb.misses            0                       # DTB misses
system.cpu.dtb.stage2_mmu.stage2_tlb.perms_faults            0                       # Number of TLB faults due to permissions restrictions
system.cpu.dtb.stage2_mmu.stage2_tlb.prefetch_faults            0                       # Number of TLB faults due to prefetch
system.cpu.dtb.stage2_mmu.stage2_tlb.read_accesses            0                       # DTB read accesses
system.cpu.dtb.stage2_mmu.stage2_tlb.read_hits            0                       # DTB read hits
system.cpu.dtb.stage2_mmu.stage2_tlb.read_misses            0                       # DTB read misses
system.cpu.dtb.stage2_mmu.stage2_tlb.walker.walkRequestOrigin_Requested::Data            0                       # Table walker requests started/completed, data/inst
system.cpu.dtb.stage2_mmu.stage2_tlb.walker.walkRequestOrigin_Requested::Inst            0                       # Table walker requests started/completed, data/inst
system.cpu.dtb.stage2_mmu.stage2_tlb.walker.walkRequestOrigin_Requested::total            0                       # Table walker requests started/completed, data/inst
system.cpu.dtb.stage2_mmu.stage2_tlb.walker.walkRequestOrigin_Completed::Data            0                       # Table walker requests started/completed, data/inst
system.cpu.dtb.stage2_mmu.stage2_tlb.walker.walkRequestOrigin_Completed::Inst            0                       # Table walker requests started/completed, data/inst
system.cpu.dtb.stage2_mmu.stage2_tlb.walker.walkRequestOrigin_Completed::total            0                       # Table walker requests started/completed, data/inst
system.cpu.dtb.stage2_mmu.stage2_tlb.walker.walkRequestOrigin::total            0                       # Table walker requests started/completed, data/inst
system.cpu.dtb.stage2_mmu.stage2_tlb.walker.walks            0                       # Table walker walks requested
system.cpu.dtb.stage2_mmu.stage2_tlb.write_accesses            0                       # DTB write accesses
system.cpu.dtb.stage2_mmu.stage2_tlb.write_hits            0                       # DTB write hits
system.cpu.dtb.stage2_mmu.stage2_tlb.write_misses            0                       # DTB write misses
system.cpu.dtb.walker.walkRequestOrigin_Requested::Data            0                       # Table walker requests started/completed, data/inst
system.cpu.dtb.walker.walkRequestOrigin_Requested::Inst            0                       # Table walker requests started/completed, data/inst
system.cpu.dtb.walker.walkRequestOrigin_Requested::total            0                       # Table walker requests started/completed, data/inst
system.cpu.dtb.walker.walkRequestOrigin_Completed::Data            0                       # Table walker requests started/completed, data/inst
system.cpu.dtb.walker.walkRequestOrigin_Completed::Inst            0                       # Table walker requests started/completed, data/inst
system.cpu.dtb.walker.walkRequestOrigin_Completed::total            0                       # Table walker requests started/completed, data/inst
system.cpu.dtb.walker.walkRequestOrigin::total            0                       # Table walker requests started/completed, data/inst
system.cpu.dtb.walker.walks                         0                       # Table walker walks requested
system.cpu.dtb.write_accesses                       0                       # DTB write accesses
system.cpu.dtb.write_hits                           0                       # DTB write hits
system.cpu.dtb.write_misses                         0                       # DTB write misses
system.cpu.fetch.Branches                     2232918                       # Number of branches that fetch encountered
system.cpu.fetch.CacheLines                   1706904                       # Number of cache lines fetched
system.cpu.fetch.Cycles                       2818529                       # Number of cycles fetch has run and was not squashing or blocked
system.cpu.fetch.IcacheSquashes                 34817                       # Number of outstanding Icache misses that were squashed
system.cpu.fetch.IcacheWaitRetryStallCycles          134                       # Number of stall cycles due to full MSHR
system.cpu.fetch.Insts                        9784138                       # Number of instructions fetch has processed
system.cpu.fetch.MiscStallCycles                   47                       # Number of cycles fetch has spent waiting on interrupts, or bad addresses, or out of MSHRs
system.cpu.fetch.SquashCycles                  137822                       # Number of cycles fetch has spent squashing
system.cpu.fetch.branchRate                  0.375704                       # Number of branch fetches per cycle
system.cpu.fetch.icacheStallCycles            2699600                       # Number of cycles fetch is stalled on an Icache miss
system.cpu.fetch.predictedBranches            1171267                       # Number of branches that fetch has predicted taken
system.cpu.fetch.rate                        1.646248                       # Number of inst fetches per cycle
system.cpu.fetch.rateDist::samples            5587221                       # Number of instructions fetched each cycle (Total)
system.cpu.fetch.rateDist::mean              1.947292                       # Number of instructions fetched each cycle (Total)
system.cpu.fetch.rateDist::stdev             2.835310                       # Number of instructions fetched each cycle (Total)
system.cpu.fetch.rateDist::underflows               0      0.00%      0.00% # Number of instructions fetched each cycle (Total)
system.cpu.fetch.rateDist::0                  3333625     59.67%     59.67% # Number of instructions fetched each cycle (Total)
system.cpu.fetch.rateDist::1                   233519      4.18%     63.84% # Number of instructions fetched each cycle (Total)
system.cpu.fetch.rateDist::2                   272359      4.87%     68.72% # Number of instructions fetched each cycle (Total)
system.cpu.fetch.rateDist::3                   278022      4.98%     73.70% # Number of instructions fetched each cycle (Total)
system.cpu.fetch.rateDist::4                   325563      5.83%     79.52% # Number of instructions fetched each cycle (Total)
system.cpu.fetch.rateDist::5                   181267      3.24%     82.77% # Number of instructions fetched each cycle (Total)
system.cpu.fetch.rateDist::6                   285391      5.11%     87.87% # Number of instructions fetched each cycle (Total)
system.cpu.fetch.rateDist::7                    73087      1.31%     89.18% # Number of instructions fetched each cycle (Total)
system.cpu.fetch.rateDist::8                   604388     10.82%    100.00% # Number of instructions fetched each cycle (Total)
system.cpu.fetch.rateDist::overflows                0      0.00%    100.00% # Number of instructions fetched each cycle (Total)
system.cpu.fetch.rateDist::min_value                0                       # Number of instructions fetched each cycle (Total)
system.cpu.fetch.rateDist::max_value                8                       # Number of instructions fetched each cycle (Total)
system.cpu.fetch.rateDist::total              5587221                       # Number of instructions fetched each cycle (Total)
system.cpu.idleCycles                          356073                       # Total number of cycles that the CPU has spent unscheduled due to idling
system.cpu.iew.branchMispredicts                67529                       # Number of branch mispredicts detected at execute
system.cpu.iew.exec_branches                  1978721                       # Number of branches executed
system.cpu.iew.exec_nop                         18360                       # number of nop insts executed
system.cpu.iew.exec_rate                     1.645036                       # Inst execution rate
system.cpu.iew.exec_refs                      2425795                       # number of memory reference insts executed
system.cpu.iew.exec_stores                     888245                       # Number of stores executed
system.cpu.iew.exec_swp                             0                       # number of swp insts executed
system.cpu.iew.iewBlockCycles                  132750                       # Number of cycles IEW is blocking
system.cpu.iew.iewDispLoadInsts               1577720                       # Number of dispatched load instructions
system.cpu.iew.iewDispNonSpecInsts                160                       # Number of dispatched non-speculative instructions
system.cpu.iew.iewDispSquashedInsts             27079                       # Number of squashed instructions skipped by dispatch
system.cpu.iew.iewDispStoreInsts               919488                       # Number of dispatched store instructions
system.cpu.iew.iewDispatchedInsts            10188534                       # Number of instructions dispatched to IQ
system.cpu.iew.iewExecLoadInsts               1537550                       # Number of load instructions executed
system.cpu.iew.iewExecSquashedInsts            100100                       # Number of squashed instructions skipped in execute
system.cpu.iew.iewExecutedInsts               9776932                       # Number of executed instructions
system.cpu.iew.iewIQFullEvents                    483                       # Number of times the IQ has become full, causing a stall
system.cpu.iew.iewIdleCycles                        0                       # Number of cycles IEW is idle
system.cpu.iew.iewLSQFullEvents                 95323                       # Number of times the LSQ has become full, causing a stall
system.cpu.iew.iewSquashCycles                  63554                       # Number of cycles IEW is squashing
system.cpu.iew.iewUnblockCycles                 96216                       # Number of cycles IEW is unblocking
system.cpu.iew.lsq.thread0.blockedLoads             0                       # Number of blocked loads due to partial load-store forwarding
system.cpu.iew.lsq.thread0.cacheBlocked          1065                       # Number of times an access to memory failed due to the cache being blocked
system.cpu.iew.lsq.thread0.forwLoads            26838                       # Number of loads that had data forwarded from stores
system.cpu.iew.lsq.thread0.ignoredResponses           74                       # Number of memory responses ignored because the instruction is squashed
system.cpu.iew.lsq.thread0.invAddrLoads             0                       # Number of loads ignored due to an invalid address
system.cpu.iew.lsq.thread0.invAddrSwpfs             0                       # Number of software prefetches ignored due to an invalid address
system.cpu.iew.lsq.thread0.memOrderViolation          272                       # Number of memory ordering violations
system.cpu.iew.lsq.thread0.rescheduledLoads        16866                       # Number of loads that were rescheduled
system.cpu.iew.lsq.thread0.squashedLoads       180639                       # Number of loads squashed
system.cpu.iew.lsq.thread0.squashedStores        76395                       # Number of stores squashed
system.cpu.iew.memOrderViolationEvents            272                       # Number of memory order violations
system.cpu.iew.predictedNotTakenIncorrect        38680                       # Number of branches that were predicted not taken incorrectly
system.cpu.iew.predictedTakenIncorrect          28849                       # Number of branches that were predicted taken incorrectly
system.cpu.iew.wb_consumers                  10123069                       # num instructions consuming a value
system.cpu.iew.wb_count                       9706245                       # cumulative count of insts written-back
system.cpu.iew.wb_fanout                     0.531257                       # average fanout of values written-back
system.cpu.iew.wb_producers                   5377949                       # num instructions producing a value
system.cpu.iew.wb_rate                       1.633142                       # insts written-back per cycle
system.cpu.iew.wb_sent                        9721934                       # cumulative count of insts sent to commit
system.cpu.int_regfile_reads                 11361143                       # number of integer regfile reads
system.cpu.int_regfile_writes                 7081091                       # number of integer regfile writes
system.cpu.ipc                               1.371311                       # IPC: Instructions Per Cycle
system.cpu.ipc_total                         1.371311                       # IPC: Total IPC of All Threads
system.cpu.iq.FU_type_0::No_OpClass                14      0.00%      0.00% # Type of FU issued
system.cpu.iq.FU_type_0::IntAlu               7374989     74.67%     74.67% # Type of FU issued
system.cpu.iq.FU_type_0::IntMult                26992      0.27%     74.94% # Type of FU issued
system.cpu.iq.FU_type_0::IntDiv                 11250      0.11%     75.06% # Type of FU issued
system.cpu.iq.FU_type_0::FloatAdd                   0      0.00%     75.06% # Type of FU issued
system.cpu.iq.FU_type_0::FloatCmp                   0      0.00%     75.06% # Type of FU issued
system.cpu.iq.FU_type_0::FloatCvt                   0      0.00%     75.06% # Type of FU issued
system.cpu.iq.FU_type_0::FloatMult                  0      0.00%     75.06% # Type of FU issued
system.cpu.iq.FU_type_0::FloatMultAcc               0      0.00%     75.06% # Type of FU issued
system.cpu.iq.FU_type_0::FloatDiv                   0      0.00%     75.06% # Type of FU issued
system.cpu.iq.FU_type_0::FloatMisc                  0      0.00%     75.06% # Type of FU issued
system.cpu.iq.FU_type_0::FloatSqrt                  0      0.00%     75.06% # Type of FU issued
system.cpu.iq.FU_type_0::SimdAdd                   45      0.00%     75.06% # Type of FU issued
system.cpu.iq.FU_type_0::SimdAddAcc                 0      0.00%     75.06% # Type of FU issued
system.cpu.iq.FU_type_0::SimdAlu                   55      0.00%     75.06% # Type of FU issued
system.cpu.iq.FU_type_0::SimdCmp                   56      0.00%     75.06% # Type of FU issued
system.cpu.iq.FU_type_0::SimdCvt                    0      0.00%     75.06% # Type of FU issued
system.cpu.iq.FU_type_0::SimdMisc                3338      0.03%     75.09% # Type of FU issued
system.cpu.iq.FU_type_0::SimdMult                   0      0.00%     75.09% # Type of FU issued
system.cpu.iq.FU_type_0::SimdMultAcc                0      0.00%     75.09% # Type of FU issued
system.cpu.iq.FU_type_0::SimdShift                  0      0.00%     75.09% # Type of FU issued
system.cpu.iq.FU_type_0::SimdShiftAcc               0      0.00%     75.09% # Type of FU issued
system.cpu.iq.FU_type_0::SimdDiv                    0      0.00%     75.09% # Type of FU issued
system.cpu.iq.FU_type_0::SimdSqrt                   0      0.00%     75.09% # Type of FU issued
system.cpu.iq.FU_type_0::SimdFloatAdd               0      0.00%     75.09% # Type of FU issued
system.cpu.iq.FU_type_0::SimdFloatAlu               0      0.00%     75.09% # Type of FU issued
system.cpu.iq.FU_type_0::SimdFloatCmp               0      0.00%     75.09% # Type of FU issued
system.cpu.iq.FU_type_0::SimdFloatCvt               0      0.00%     75.09% # Type of FU issued
system.cpu.iq.FU_type_0::SimdFloatDiv               0      0.00%     75.09% # Type of FU issued
system.cpu.iq.FU_type_0::SimdFloatMisc              0      0.00%     75.09% # Type of FU issued
system.cpu.iq.FU_type_0::SimdFloatMult              0      0.00%     75.09% # Type of FU issued
system.cpu.iq.FU_type_0::SimdFloatMultAcc            0      0.00%     75.09% # Type of FU issued
system.cpu.iq.FU_type_0::SimdFloatSqrt              0      0.00%     75.09% # Type of FU issued
system.cpu.iq.FU_type_0::SimdReduceAdd              0      0.00%     75.09% # Type of FU issued
system.cpu.iq.FU_type_0::SimdReduceAlu              0      0.00%     75.09% # Type of FU issued
system.cpu.iq.FU_type_0::SimdReduceCmp              0      0.00%     75.09% # Type of FU issued
system.cpu.iq.FU_type_0::SimdFloatReduceAdd            0      0.00%     75.09% # Type of FU issued
system.cpu.iq.FU_type_0::SimdFloatReduceCmp            0      0.00%     75.09% # Type of FU issued
system.cpu.iq.FU_type_0::SimdAes                    0      0.00%     75.09% # Type of FU issued
system.cpu.iq.FU_type_0::SimdAesMix                 0      0.00%     75.09% # Type of FU issued
system.cpu.iq.FU_type_0::SimdSha1Hash               0      0.00%     75.09% # Type of FU issued
system.cpu.iq.FU_type_0::SimdSha1Hash2              0      0.00%     75.09% # Type of FU issued
system.cpu.iq.FU_type_0::SimdSha256Hash             0      0.00%     75.09% # Type of FU issued
system.cpu.iq.FU_type_0::SimdSha256Hash2            0      0.00%     75.09% # Type of FU issued
system.cpu.iq.FU_type_0::SimdShaSigma2              0      0.00%     75.09% # Type of FU issued
system.cpu.iq.FU_type_0::SimdShaSigma3              0      0.00%     75.09% # Type of FU issued
system.cpu.iq.FU_type_0::SimdPredAlu                0      0.00%     75.09% # Type of FU issued
system.cpu.iq.FU_type_0::MemRead              1561574     15.81%     90.90% # Type of FU issued
system.cpu.iq.FU_type_0::MemWrite              898719      9.10%    100.00% # Type of FU issued
system.cpu.iq.FU_type_0::FloatMemRead               0      0.00%    100.00% # Type of FU issued
system.cpu.iq.FU_type_0::FloatMemWrite              0      0.00%    100.00% # Type of FU issued
system.cpu.iq.FU_type_0::IprAccess                  0      0.00%    100.00% # Type of FU issued
system.cpu.iq.FU_type_0::InstPrefetch               0      0.00%    100.00% # Type of FU issued
system.cpu.iq.FU_type_0::total                9877032                       # Type of FU issued
system.cpu.iq.fp_alu_accesses                       0                       # Number of floating point alu accesses
system.cpu.iq.fp_inst_queue_reads                   0                       # Number of floating instruction queue reads
system.cpu.iq.fp_inst_queue_wakeup_accesses            0                       # Number of floating instruction queue wakeup accesses
system.cpu.iq.fp_inst_queue_writes                  0                       # Number of floating instruction queue writes
system.cpu.iq.fu_busy_cnt                       91661                       # FU busy when requested
system.cpu.iq.fu_busy_rate                   0.009280                       # FU busy rate (busy events/executed inst)
system.cpu.iq.fu_full::No_OpClass                   0      0.00%      0.00% # attempts to use FU when none available
system.cpu.iq.fu_full::IntAlu                   36353     39.66%     39.66% # attempts to use FU when none available
system.cpu.iq.fu_full::IntMult                      0      0.00%     39.66% # attempts to use FU when none available
system.cpu.iq.fu_full::IntDiv                     974      1.06%     40.72% # attempts to use FU when none available
system.cpu.iq.fu_full::FloatAdd                     0      0.00%     40.72% # attempts to use FU when none available
system.cpu.iq.fu_full::FloatCmp                     0      0.00%     40.72% # attempts to use FU when none available
system.cpu.iq.fu_full::FloatCvt                     0      0.00%     40.72% # attempts to use FU when none available
system.cpu.iq.fu_full::FloatMult                    0      0.00%     40.72% # attempts to use FU when none available
system.cpu.iq.fu_full::FloatMultAcc                 0      0.00%     40.72% # attempts to use FU when none available
system.cpu.iq.fu_full::FloatDiv                     0      0.00%     40.72% # attempts to use FU when none available
system.cpu.iq.fu_full::FloatMisc                    0      0.00%     40.72% # attempts to use FU when none available
system.cpu.iq.fu_full::FloatSqrt                    0      0.00%     40.72% # attempts to use FU when none available
system.cpu.iq.fu_full::SimdAdd                      0      0.00%     40.72% # attempts to use FU when none available
system.cpu.iq.fu_full::SimdAddAcc                   0      0.00%     40.72% # attempts to use FU when none available
system.cpu.iq.fu_full::SimdAlu                      1      0.00%     40.72% # attempts to use FU when none available
system.cpu.iq.fu_full::SimdCmp                      2      0.00%     40.73% # attempts to use FU when none available
system.cpu.iq.fu_full::SimdCvt                      0      0.00%     40.73% # attempts to use FU when none available
system.cpu.iq.fu_full::SimdMisc                     0      0.00%     40.73% # attempts to use FU when none available
system.cpu.iq.fu_full::SimdMult                     0      0.00%     40.73% # attempts to use FU when none available
system.cpu.iq.fu_full::SimdMultAcc                  0      0.00%     40.73% # attempts to use FU when none available
system.cpu.iq.fu_full::SimdShift                    0      0.00%     40.73% # attempts to use FU when none available
system.cpu.iq.fu_full::SimdShiftAcc                 0      0.00%     40.73% # attempts to use FU when none available
system.cpu.iq.fu_full::SimdDiv                      0      0.00%     40.73% # attempts to use FU when none available
system.cpu.iq.fu_full::SimdSqrt                     0      0.00%     40.73% # attempts to use FU when none available
system.cpu.iq.fu_full::SimdFloatAdd                 0      0.00%     40.73% # attempts to use FU when none available
system.cpu.iq.fu_full::SimdFloatAlu                 0      0.00%     40.73% # attempts to use FU when none available
system.cpu.iq.fu_full::SimdFloatCmp                 0      0.00%     40.73% # attempts to use FU when none available
system.cpu.iq.fu_full::SimdFloatCvt                 0      0.00%     40.73% # attempts to use FU when none available
system.cpu.iq.fu_full::SimdFloatDiv                 0      0.00%     40.73% # attempts to use FU when none available
system.cpu.iq.fu_full::SimdFloatMisc                0      0.00%     40.73% # attempts to use FU when none available
system.cpu.iq.fu_full::SimdFloatMult                0      0.00%     40.73% # attempts to use FU when none available
system.cpu.iq.fu_full::SimdFloatMultAcc             0      0.00%     40.73% # attempts to use FU when none available
system.cpu.iq.fu_full::SimdFloatSqrt                0      0.00%     40.73% # attempts to use FU when none available
system.cpu.iq.fu_full::SimdReduceAdd                0      0.00%     40.73% # attempts to use FU when none available
system.cpu.iq.fu_full::SimdReduceAlu                0      0.00%     40.73% # attempts to use FU when none available
system.cpu.iq.fu_full::SimdReduceCmp                0      0.00%     40.73% # attempts to use FU when none available
system.cpu.iq.fu_full::SimdFloatReduceAdd            0      0.00%     40.73% # attempts to use FU when none available
system.cpu.iq.fu_full::SimdFloatReduceCmp            0      0.00%     40.73% # attempts to use FU when none available
system.cpu.iq.fu_full::SimdAes                      0      0.00%     40.73% # attempts to use FU when none available
system.cpu.iq.fu_full::SimdAesMix                   0      0.00%     40.73% # attempts to use FU when none available
system.cpu.iq.fu_full::SimdSha1Hash                 0      0.00%     40.73% # attempts to use FU when none available
system.cpu.iq.fu_full::SimdSha1Hash2                0      0.00%     40.73% # attempts to use FU when none available
system.cpu.iq.fu_full::SimdSha256Hash               0      0.00%     40.73% # attempts to use FU when none available
system.cpu.iq.fu_full::SimdSha256Hash2              0      0.00%     40.73% # attempts to use FU when none available
system.cpu.iq.fu_full::SimdShaSigma2                0      0.00%     40.73% # attempts to use FU when none available
system.cpu.iq.fu_full::SimdShaSigma3                0      0.00%     40.73% # attempts to use FU when none available
system.cpu.iq.fu_full::SimdPredAlu                  0      0.00%     40.73% # attempts to use FU when none available
system.cpu.iq.fu_full::MemRead                  22031     24.04%     64.76% # attempts to use FU when none available
system.cpu.iq.fu_full::MemWrite                 32300     35.24%    100.00% # attempts to use FU when none available
system.cpu.iq.fu_full::FloatMemRead                 0      0.00%    100.00% # attempts to use FU when none available
system.cpu.iq.fu_full::FloatMemWrite                0      0.00%    100.00% # attempts to use FU when none available
system.cpu.iq.fu_full::IprAccess                    0      0.00%    100.00% # attempts to use FU when none available
system.cpu.iq.fu_full::InstPrefetch                 0      0.00%    100.00% # attempts to use FU when none available
system.cpu.iq.int_alu_accesses                9871167                       # Number of integer alu accesses
system.cpu.iq.int_inst_queue_reads           25253608                       # Number of integer instruction queue reads
system.cpu.iq.int_inst_queue_wakeup_accesses      9620333                       # Number of integer instruction queue wakeup accesses
system.cpu.iq.int_inst_queue_writes          11145505                       # Number of integer instruction queue writes
system.cpu.iq.iqInstsAdded                   10170014                       # Number of instructions added to the IQ (excludes non-spec)
system.cpu.iq.iqInstsIssued                   9877032                       # Number of instructions issued
system.cpu.iq.iqNonSpecInstsAdded                 160                       # Number of non-speculative instructions added to the IQ
system.cpu.iq.iqSquashedInstsExamined         1066663                       # Number of squashed instructions iterated over during squash; mainly for profiling
system.cpu.iq.iqSquashedInstsIssued              5377                       # Number of squashed instructions issued
system.cpu.iq.iqSquashedNonSpecRemoved             44                       # Number of squashed non-spec instructions that were removed
system.cpu.iq.iqSquashedOperandsExamined       768208                       # Number of squashed operands that are examined and possibly removed from graph
system.cpu.iq.issued_per_cycle::samples       5587221                       # Number of insts issued each cycle
system.cpu.iq.issued_per_cycle::mean         1.767790                       # Number of insts issued each cycle
system.cpu.iq.issued_per_cycle::stdev        1.976114                       # Number of insts issued each cycle
system.cpu.iq.issued_per_cycle::underflows            0      0.00%      0.00% # Number of insts issued each cycle
system.cpu.iq.issued_per_cycle::0             2329457     41.69%     41.69% # Number of insts issued each cycle
system.cpu.iq.issued_per_cycle::1              648536     11.61%     53.30% # Number of insts issued each cycle
system.cpu.iq.issued_per_cycle::2              821759     14.71%     68.01% # Number of insts issued each cycle
system.cpu.iq.issued_per_cycle::3              685237     12.26%     80.27% # Number of insts issued each cycle
system.cpu.iq.issued_per_cycle::4              491632      8.80%     89.07% # Number of insts issued each cycle
system.cpu.iq.issued_per_cycle::5              272665      4.88%     93.95% # Number of insts issued each cycle
system.cpu.iq.issued_per_cycle::6              213229      3.82%     97.77% # Number of insts issued each cycle
system.cpu.iq.issued_per_cycle::7               77608      1.39%     99.16% # Number of insts issued each cycle
system.cpu.iq.issued_per_cycle::8               47098      0.84%    100.00% # Number of insts issued each cycle
system.cpu.iq.issued_per_cycle::overflows            0      0.00%    100.00% # Number of insts issued each cycle
system.cpu.iq.issued_per_cycle::min_value            0                       # Number of insts issued each cycle
system.cpu.iq.issued_per_cycle::max_value            8                       # Number of insts issued each cycle
system.cpu.iq.issued_per_cycle::total         5587221                       # Number of insts issued each cycle
system.cpu.iq.rate                           1.661878                       # Inst issue rate
system.cpu.iq.vec_alu_accesses                  97512                       # Number of vector alu accesses
system.cpu.iq.vec_inst_queue_reads             184715                       # Number of vector instruction queue reads
system.cpu.iq.vec_inst_queue_wakeup_accesses        85912                       # Number of vector instruction queue wakeup accesses
system.cpu.iq.vec_inst_queue_writes             91590                       # Number of vector instruction queue writes
system.cpu.itb.accesses                             0                       # DTB accesses
system.cpu.itb.align_faults                         0                       # Number of TLB faults due to alignment restrictions
system.cpu.itb.domain_faults                        0                       # Number of TLB faults due to domain restrictions
system.cpu.itb.flush_entries                        0                       # Number of entries that have been flushed from TLB
system.cpu.itb.flush_tlb                            0                       # Number of times complete TLB was flushed
system.cpu.itb.flush_tlb_asid                       0                       # Number of times TLB was flushed by ASID
system.cpu.itb.flush_tlb_mva                        0                       # Number of times TLB was flushed by MVA
system.cpu.itb.flush_tlb_mva_asid                   0                       # Number of times TLB was flushed by MVA & ASID
system.cpu.itb.hits                                 0                       # DTB hits
system.cpu.itb.inst_accesses                        0                       # ITB inst accesses
system.cpu.itb.inst_hits                            0                       # ITB inst hits
system.cpu.itb.inst_misses                          0                       # ITB inst misses
system.cpu.itb.misses                               0                       # DTB misses
system.cpu.itb.perms_faults                         0                       # Number of TLB faults due to permissions restrictions
system.cpu.itb.prefetch_faults                      0                       # Number of TLB faults due to prefetch
system.cpu.itb.read_accesses                        0                       # DTB read accesses
system.cpu.itb.read_hits                            0                       # DTB read hits
system.cpu.itb.read_misses                          0                       # DTB read misses
system.cpu.itb.stage2_mmu.stage2_tlb.accesses            0                       # DTB accesses
system.cpu.itb.stage2_mmu.stage2_tlb.align_faults            0                       # Number of TLB faults due to alignment restrictions
system.cpu.itb.stage2_mmu.stage2_tlb.domain_faults            0                       # Number of TLB faults due to domain restrictions
system.cpu.itb.stage2_mmu.stage2_tlb.flush_entries            0                       # Number of entries that have been flushed from TLB
system.cpu.itb.stage2_mmu.stage2_tlb.flush_tlb            0                       # Number of times complete TLB was flushed
system.cpu.itb.stage2_mmu.stage2_tlb.flush_tlb_asid            0                       # Number of times TLB was flushed by ASID
system.cpu.itb.stage2_mmu.stage2_tlb.flush_tlb_mva            0                       # Number of times TLB was flushed by MVA
system.cpu.itb.stage2_mmu.stage2_tlb.flush_tlb_mva_asid            0                       # Number of times TLB was flushed by MVA & ASID
system.cpu.itb.stage2_mmu.stage2_tlb.hits            0                       # DTB hits
system.cpu.itb.stage2_mmu.stage2_tlb.inst_accesses            0                       # ITB inst accesses
system.cpu.itb.stage2_mmu.stage2_tlb.inst_hits            0                       # ITB inst hits
system.cpu.itb.stage2_mmu.stage2_tlb.inst_misses            0                       # ITB inst misses
system.cpu.itb.stage2_mmu.stage2_tlb.misses            0                       # DTB misses
system.cpu.itb.stage2_mmu.stage2_tlb.perms_faults            0                       # Number of TLB faults due to permissions restrictions
system.cpu.itb.stage2_mmu.stage2_tlb.prefetch_faults            0                       # Number of TLB faults due to prefetch
system.cpu.itb.stage2_mmu.stage2_tlb.read_accesses            0                       # DTB read accesses
system.cpu.itb.stage2_mmu.stage2_tlb.read_hits            0                       # DTB read hits
system.cpu.itb.stage2_mmu.stage2_tlb.read_misses            0                       # DTB read misses
system.cpu.itb.stage2_mmu.stage2_tlb.walker.walkRequestOrigin_Requested::Data            0                       # Table walker requests started/completed, data/inst
system.cpu.itb.stage2_mmu.stage2_tlb.walker.walkRequestOrigin_Requested::Inst            0                       # Table walker requests started/completed, data/inst
system.cpu.itb.stage2_mmu.stage2_tlb.walker.walkRequestOrigin_Requested::total            0                       # Table walker requests started/completed, data/inst
system.cpu.itb.stage2_mmu.stage2_tlb.walker.walkRequestOrigin_Completed::Data            0                       # Table walker requests started/completed, data/inst
system.cpu.itb.stage2_mmu.stage2_tlb.walker.walkRequestOrigin_Completed::Inst            0                       # Table walker requests started/completed, data/inst
system.cpu.itb.stage2_mmu.stage2_tlb.walker.walkRequestOrigin_Completed::total            0                       # Table walker requests started/completed, data/inst
system.cpu.itb.stage2_mmu.stage2_tlb.walker.walkRequestOrigin::total            0                       # Table walker requests started/completed, data/inst
system.cpu.itb.stage2_mmu.stage2_tlb.walker.walks            0                       # Table walker walks requested
system.cpu.itb.stage2_mmu.stage2_tlb.write_accesses            0                       # DTB write accesses
system.cpu.itb.stage2_mmu.stage2_tlb.write_hits            0                       # DTB write hits
system.cpu.itb.stage2_mmu.stage2_tlb.write_misses            0                       # DTB write misses
system.cpu.itb.walker.walkRequestOrigin_Requested::Data            0                       # Table walker requests started/completed, data/inst
system.cpu.itb.walker.walkRequestOrigin_Requested::Inst            0                       # Table walker requests started/completed, data/inst
system.cpu.itb.walker.walkRequestOrigin_Requested::total            0                       # Table walker requests started/completed, data/inst
system.cpu.itb.walker.walkRequestOrigin_Completed::Data            0                       # Table walker requests started/completed, data/inst
system.cpu.itb.walker.walkRequestOrigin_Completed::Inst            0                       # Table walker requests started/completed, data/inst
system.cpu.itb.walker.walkRequestOrigin_Completed::total            0                       # Table walker requests started/completed, data/inst
system.cpu.itb.walker.walkRequestOrigin::total            0                       # Table walker requests started/completed, data/inst
system.cpu.itb.walker.walks                         0                       # Table walker walks requested
system.cpu.itb.write_accesses                       0                       # DTB write accesses
system.cpu.itb.write_hits                           0                       # DTB write hits
system.cpu.itb.write_misses                         0                       # DTB write misses
system.cpu.memDep0.conflictingLoads             23705                       # Number of conflicting loads.
system.cpu.memDep0.conflictingStores            46408                       # Number of conflicting stores.
system.cpu.memDep0.insertedLoads              1577720                       # Number of loads inserted to the mem dependence unit.
system.cpu.memDep0.insertedStores              919488                       # Number of stores inserted to the mem dependence unit.
system.cpu.misc_regfile_reads                 6471355                       # number of misc regfile reads
system.cpu.misc_regfile_writes                    369                       # number of misc regfile writes
system.cpu.numCycles                          5943294                       # number of cpu cycles simulated
system.cpu.numWorkItemsCompleted                    0                       # number of work items this cpu completed
system.cpu.numWorkItemsStarted                      0                       # number of work items this cpu started
system.cpu.rename.BlockCycles                  249266                       # Number of cycles rename is blocking
system.cpu.rename.CommittedMaps              10715582                       # Number of HB maps that are committed
system.cpu.rename.IQFullEvents                  14618                       # Number of times rename has blocked due to IQ full
system.cpu.rename.IdleCycles                  2604257                       # Number of cycles rename is idle
system.cpu.rename.LQFullEvents                   2884                       # Number of times rename has blocked due to LQ full
system.cpu.rename.ROBFullEvents                  1948                       # Number of times rename has blocked due to ROB full
system.cpu.rename.RenameLookups              17362925                       # Number of register rename lookups that rename has made
system.cpu.rename.RenamedInsts               10502651                       # Number of instructions processed by rename
system.cpu.rename.RenamedOperands            12389309                       # Number of destination operands rename has renamed
system.cpu.rename.RunCycles                   2121550                       # Number of cycles rename is running
system.cpu.rename.SQFullEvents                 495902                       # Number of times rename has blocked due to SQ full
system.cpu.rename.SquashCycles                  63554                       # Number of cycles rename is squashing
system.cpu.rename.UnblockCycles                515716                       # Number of cycles rename is unblocking
system.cpu.rename.UndoneMaps                  1673727                       # Number of HB maps that are undone due to squashing
system.cpu.rename.int_rename_lookups         12242761                       # Number of integer rename lookups
system.cpu.rename.serializeStallCycles          32878                       # count of cycles rename stalled for serializing inst
system.cpu.rename.serializingInsts               1314                       # count of serializing insts renamed
system.cpu.rename.skidInsts                    136065                       # count of insts added to the skid buffer
system.cpu.rename.tempSerializingInsts            165                       # count of temporary serializing insts renamed
system.cpu.rename.vec_rename_lookups            85729                       # Number of vector rename lookups
system.cpu.rob.rob_reads                     15125123                       # The number of ROB reads
system.cpu.rob.rob_writes                    20537351                       # The number of ROB writes
system.cpu.timesIdled                           35956                       # Number of times that the entire CPU went into an idle state and unscheduled itself
system.cpu.vec_regfile_reads                    83247                       # number of vector regfile reads
system.cpu.vec_regfile_writes                    3493                       # number of vector regfile writes
system.cpu.workload.numSyscalls                    23                       # Number of system calls
system.membus.snoop_filter.hit_multi_requests            0                       # Number of requests hitting in the snoop filter with multiple (>1) holders of the requested data.
system.membus.snoop_filter.hit_multi_snoops            0                       # Number of snoops hitting in the snoop filter with multiple (>1) holders of the requested data.
system.membus.snoop_filter.hit_single_requests            1                       # Number of requests hitting in the snoop filter with a single holder of the requested data.
system.membus.snoop_filter.hit_single_snoops            0                       # Number of snoops hitting in the snoop filter with a single holder of the requested data.
system.membus.snoop_filter.tot_requests         15194                       # Total number of requests made to the snoop filter.
system.membus.snoop_filter.tot_snoops               0                       # Total number of snoops made to the snoop filter.
system.tol2bus.snoop_filter.hit_multi_requests            3                       # Number of requests hitting in the snoop filter with multiple (>1) holders of the requested data.
system.tol2bus.snoop_filter.hit_multi_snoops            0                       # Number of snoops hitting in the snoop filter with multiple (>1) holders of the requested data.
system.tol2bus.snoop_filter.hit_single_requests        64159                       # Number of requests hitting in the snoop filter with a single holder of the requested data.
system.tol2bus.snoop_filter.hit_single_snoops            0                       # Number of snoops hitting in the snoop filter with a single holder of the requested data.
system.tol2bus.snoop_filter.tot_requests       129599                       # Total number of requests made to the snoop filter.
system.tol2bus.snoop_filter.tot_snoops              0                       # Total number of snoops made to the snoop filter.
system.membus.trans_dist::ReadResp               4443                       # Transaction distribution
system.membus.trans_dist::CleanEvict                1                       # Transaction distribution
system.membus.trans_dist::ReadExReq              9451                       # Transaction distribution
system.membus.trans_dist::ReadExResp             9451                       # Transaction distribution
system.membus.trans_dist::ReadSharedReq          4443                       # Transaction distribution
system.membus.trans_dist::InvalidateReq          1299                       # Transaction distribution
system.membus.pkt_count_system.l2.mem_side::system.mem_ctrls.port        29088                       # Packet count per connected master and slave (bytes)
system.membus.pkt_count::total                  29088                       # Packet count per connected master and slave (bytes)
system.membus.pkt_size_system.l2.mem_side::system.mem_ctrls.port       889216                       # Cumulative packet size per connected master and slave (bytes)
system.membus.pkt_size::total                  889216                       # Cumulative packet size per connected master and slave (bytes)
system.membus.snoops                                0                       # Total snoops (count)
system.membus.snoopTraffic                          0                       # Total snoop traffic (bytes)
system.membus.snoop_fanout::samples             15193                       # Request fanout histogram
system.membus.snoop_fanout::mean                    0                       # Request fanout histogram
system.membus.snoop_fanout::stdev                   0                       # Request fanout histogram
system.membus.snoop_fanout::underflows              0      0.00%      0.00% # Request fanout histogram
system.membus.snoop_fanout::0                   15193    100.00%    100.00% # Request fanout histogram
system.membus.snoop_fanout::1                       0      0.00%    100.00% # Request fanout histogram
system.membus.snoop_fanout::overflows               0      0.00%    100.00% # Request fanout histogram
system.membus.snoop_fanout::min_value               0                       # Request fanout histogram
system.membus.snoop_fanout::max_value               0                       # Request fanout histogram
system.membus.snoop_fanout::total               15193                       # Request fanout histogram
system.membus.reqLayer0.occupancy            18663500                       # Layer occupancy (ticks)
system.membus.reqLayer0.utilization               0.6                       # Layer utilization (%)
system.membus.respLayer1.occupancy           73540250                       # Layer occupancy (ticks)
system.membus.respLayer1.utilization              2.5                       # Layer utilization (%)
system.membus.power_state.pwrStateResidencyTicks::UNDEFINED   2971642000                       # Cumulative time (in ticks) in various power states
system.tol2bus.trans_dist::ReadResp             54361                       # Transaction distribution
system.tol2bus.trans_dist::WritebackDirty        12294                       # Transaction distribution
system.tol2bus.trans_dist::WritebackClean        50832                       # Transaction distribution
system.tol2bus.trans_dist::CleanEvict            1034                       # Transaction distribution
system.tol2bus.trans_dist::ReadExReq             9766                       # Transaction distribution
system.tol2bus.trans_dist::ReadExResp            9766                       # Transaction distribution
system.tol2bus.trans_dist::ReadCleanReq         51089                       # Transaction distribution
system.tol2bus.trans_dist::ReadSharedReq         3273                       # Transaction distribution
system.tol2bus.trans_dist::InvalidateReq         1312                       # Transaction distribution
system.tol2bus.trans_dist::InvalidateResp         1312                       # Transaction distribution
system.tol2bus.pkt_count_system.cpu.icache.mem_side::system.l2.cpu_side       153009                       # Packet count per connected master and slave (bytes)
system.tol2bus.pkt_count_system.cpu.dcache.mem_side::system.l2.cpu_side        42029                       # Packet count per connected master and slave (bytes)
system.tol2bus.pkt_count::total                195038                       # Packet count per connected master and slave (bytes)
system.tol2bus.pkt_size_system.cpu.icache.mem_side::system.l2.cpu_side      6522880                       # Cumulative packet size per connected master and slave (bytes)
system.tol2bus.pkt_size_system.cpu.dcache.mem_side::system.l2.cpu_side      1621312                       # Cumulative packet size per connected master and slave (bytes)
system.tol2bus.pkt_size::total                8144192                       # Cumulative packet size per connected master and slave (bytes)
system.tol2bus.snoops                               1                       # Total snoops (count)
system.tol2bus.snoopTraffic                         0                       # Total snoop traffic (bytes)
system.tol2bus.snoop_fanout::samples            65441                       # Request fanout histogram
system.tol2bus.snoop_fanout::mean            0.000046                       # Request fanout histogram
system.tol2bus.snoop_fanout::stdev           0.006771                       # Request fanout histogram
system.tol2bus.snoop_fanout::underflows             0      0.00%      0.00% # Request fanout histogram
system.tol2bus.snoop_fanout::0                  65438    100.00%    100.00% # Request fanout histogram
system.tol2bus.snoop_fanout::1                      3      0.00%    100.00% # Request fanout histogram
system.tol2bus.snoop_fanout::2                      0      0.00%    100.00% # Request fanout histogram
system.tol2bus.snoop_fanout::overflows              0      0.00%    100.00% # Request fanout histogram
system.tol2bus.snoop_fanout::min_value              0                       # Request fanout histogram
system.tol2bus.snoop_fanout::max_value              1                       # Request fanout histogram
system.tol2bus.snoop_fanout::total              65441                       # Request fanout histogram
system.tol2bus.reqLayer0.occupancy          127925500                       # Layer occupancy (ticks)
system.tol2bus.reqLayer0.utilization              4.3                       # Layer utilization (%)
system.tol2bus.respLayer1.occupancy          20231466                       # Layer occupancy (ticks)
system.tol2bus.respLayer1.utilization             0.7                       # Layer utilization (%)
system.tol2bus.respLayer0.occupancy          76634495                       # Layer occupancy (ticks)
system.tol2bus.respLayer0.utilization             2.6                       # Layer utilization (%)
system.tol2bus.power_state.pwrStateResidencyTicks::UNDEFINED   2971642000                       # Cumulative time (in ticks) in various power states
system.voltage_domain.voltage                       1                       # Voltage in Volts
system.clk_domain.clock                          1000                       # Clock period in ticks
system.l2.demand_hits::.cpu.inst                48224                       # number of demand (read+write) hits
system.l2.demand_hits::.cpu.data                 2009                       # number of demand (read+write) hits
system.l2.demand_hits::total                    50233                       # number of demand (read+write) hits
system.l2.overall_hits::.cpu.inst               48224                       # number of overall hits
system.l2.overall_hits::.cpu.data                2009                       # number of overall hits
system.l2.overall_hits::total                   50233                       # number of overall hits
system.l2.demand_misses::.cpu.inst               2865                       # number of demand (read+write) misses
system.l2.demand_misses::.cpu.data              11030                       # number of demand (read+write) misses
system.l2.demand_misses::total                  13895                       # number of demand (read+write) misses
system.l2.overall_misses::.cpu.inst              2865                       # number of overall misses
system.l2.overall_misses::.cpu.data             11030                       # number of overall misses
system.l2.overall_misses::total                 13895                       # number of overall misses
system.l2.demand_miss_latency::.cpu.inst    230781000                       # number of demand (read+write) miss cycles
system.l2.demand_miss_latency::.cpu.data    875592500                       # number of demand (read+write) miss cycles
system.l2.demand_miss_latency::total       1106373500                       # number of demand (read+write) miss cycles
system.l2.overall_miss_latency::.cpu.inst    230781000                       # number of overall miss cycles
system.l2.overall_miss_latency::.cpu.data    875592500                       # number of overall miss cycles
system.l2.overall_miss_latency::total      1106373500                       # number of overall miss cycles
system.l2.demand_accesses::.cpu.inst            51089                       # number of demand (read+write) accesses
system.l2.demand_accesses::.cpu.data            13039                       # number of demand (read+write) accesses
system.l2.demand_accesses::total                64128                       # number of demand (read+write) accesses
system.l2.overall_accesses::.cpu.inst           51089                       # number of overall (read+write) accesses
system.l2.overall_accesses::.cpu.data           13039                       # number of overall (read+write) accesses
system.l2.overall_accesses::total               64128                       # number of overall (read+write) accesses
system.l2.demand_miss_rate::.cpu.inst        0.056079                       # miss rate for demand accesses
system.l2.demand_miss_rate::.cpu.data        0.845924                       # miss rate for demand accesses
system.l2.demand_miss_rate::total            0.216676                       # miss rate for demand accesses
system.l2.overall_miss_rate::.cpu.inst       0.056079                       # miss rate for overall accesses
system.l2.overall_miss_rate::.cpu.data       0.845924                       # miss rate for overall accesses
system.l2.overall_miss_rate::total           0.216676                       # miss rate for overall accesses
system.l2.demand_avg_miss_latency::.cpu.inst 80551.832461                       # average overall miss latency
system.l2.demand_avg_miss_latency::.cpu.data 79382.819583                       # average overall miss latency
system.l2.demand_avg_miss_latency::total 79623.857503                       # average overall miss latency
system.l2.overall_avg_miss_latency::.cpu.inst 80551.832461                       # average overall miss latency
system.l2.overall_avg_miss_latency::.cpu.data 79382.819583                       # average overall miss latency
system.l2.overall_avg_miss_latency::total 79623.857503                       # average overall miss latency
system.l2.blocked_cycles::no_mshrs                  0                       # number of cycles access was blocked
system.l2.blocked_cycles::no_targets                0                       # number of cycles access was blocked
system.l2.blocked::no_mshrs                         0                       # number of cycles access was blocked
system.l2.blocked::no_targets                       0                       # number of cycles access was blocked
system.l2.avg_blocked_cycles::no_mshrs            nan                       # average number of cycles each access was blocked
system.l2.avg_blocked_cycles::no_targets          nan                       # average number of cycles each access was blocked
system.l2.demand_mshr_misses::.cpu.inst          2865                       # number of demand (read+write) MSHR misses
system.l2.demand_mshr_misses::.cpu.data         11030                       # number of demand (read+write) MSHR misses
system.l2.demand_mshr_misses::total             13895                       # number of demand (read+write) MSHR misses
system.l2.overall_mshr_misses::.cpu.inst         2865                       # number of overall MSHR misses
system.l2.overall_mshr_misses::.cpu.data        11030                       # number of overall MSHR misses
system.l2.overall_mshr_misses::total            13895                       # number of overall MSHR misses
system.l2.demand_mshr_miss_latency::.cpu.inst    202140501                       # number of demand (read+write) MSHR miss cycles
system.l2.demand_mshr_miss_latency::.cpu.data    765292001                       # number of demand (read+write) MSHR miss cycles
system.l2.demand_mshr_miss_latency::total    967432502                       # number of demand (read+write) MSHR miss cycles
system.l2.overall_mshr_miss_latency::.cpu.inst    202140501                       # number of overall MSHR miss cycles
system.l2.overall_mshr_miss_latency::.cpu.data    765292001                       # number of overall MSHR miss cycles
system.l2.overall_mshr_miss_latency::total    967432502                       # number of overall MSHR miss cycles
system.l2.demand_mshr_miss_rate::.cpu.inst     0.056079                       # mshr miss rate for demand accesses
system.l2.demand_mshr_miss_rate::.cpu.data     0.845924                       # mshr miss rate for demand accesses
system.l2.demand_mshr_miss_rate::total       0.216676                       # mshr miss rate for demand accesses
system.l2.overall_mshr_miss_rate::.cpu.inst     0.056079                       # mshr miss rate for overall accesses
system.l2.overall_mshr_miss_rate::.cpu.data     0.845924                       # mshr miss rate for overall accesses
system.l2.overall_mshr_miss_rate::total      0.216676                       # mshr miss rate for overall accesses
system.l2.demand_avg_mshr_miss_latency::.cpu.inst 70555.148691                       # average overall mshr miss latency
system.l2.demand_avg_mshr_miss_latency::.cpu.data 69382.774343                       # average overall mshr miss latency
system.l2.demand_avg_mshr_miss_latency::total 69624.505362                       # average overall mshr miss latency
system.l2.overall_avg_mshr_miss_latency::.cpu.inst 70555.148691                       # average overall mshr miss latency
system.l2.overall_avg_mshr_miss_latency::.cpu.data 69382.774343                       # average overall mshr miss latency
system.l2.overall_avg_mshr_miss_latency::total 69624.505362                       # average overall mshr miss latency
system.l2.replacements                              1                       # number of replacements
system.l2.WritebackDirty_hits::.writebacks        12294                       # number of WritebackDirty hits
system.l2.WritebackDirty_hits::total            12294                       # number of WritebackDirty hits
system.l2.WritebackDirty_accesses::.writebacks        12294                       # number of WritebackDirty accesses(hits+misses)
system.l2.WritebackDirty_accesses::total        12294                       # number of WritebackDirty accesses(hits+misses)
system.l2.WritebackClean_hits::.writebacks        50830                       # number of WritebackClean hits
system.l2.WritebackClean_hits::total            50830                       # number of WritebackClean hits
system.l2.WritebackClean_accesses::.writebacks        50830                       # number of WritebackClean accesses(hits+misses)
system.l2.WritebackClean_accesses::total        50830                       # number of WritebackClean accesses(hits+misses)
system.l2.ReadExReq_hits::.cpu.data               315                       # number of ReadExReq hits
system.l2.ReadExReq_hits::total                   315                       # number of ReadExReq hits
system.l2.ReadExReq_misses::.cpu.data            9451                       # number of ReadExReq misses
system.l2.ReadExReq_misses::total                9451                       # number of ReadExReq misses
system.l2.ReadExReq_miss_latency::.cpu.data    742250000                       # number of ReadExReq miss cycles
system.l2.ReadExReq_miss_latency::total     742250000                       # number of ReadExReq miss cycles
system.l2.ReadExReq_accesses::.cpu.data          9766                       # number of ReadExReq accesses(hits+misses)
system.l2.ReadExReq_accesses::total              9766                       # number of ReadExReq accesses(hits+misses)
system.l2.ReadExReq_miss_rate::.cpu.data     0.967745                       # miss rate for ReadExReq accesses
system.l2.ReadExReq_miss_rate::total         0.967745                       # miss rate for ReadExReq accesses
system.l2.ReadExReq_avg_miss_latency::.cpu.data 78536.662787                       # average ReadExReq miss latency
system.l2.ReadExReq_avg_miss_latency::total 78536.662787                       # average ReadExReq miss latency
system.l2.ReadExReq_mshr_misses::.cpu.data         9451                       # number of ReadExReq MSHR misses
system.l2.ReadExReq_mshr_misses::total           9451                       # number of ReadExReq MSHR misses
system.l2.ReadExReq_mshr_miss_latency::.cpu.data    647739501                       # number of ReadExReq MSHR miss cycles
system.l2.ReadExReq_mshr_miss_latency::total    647739501                       # number of ReadExReq MSHR miss cycles
system.l2.ReadExReq_mshr_miss_rate::.cpu.data     0.967745                       # mshr miss rate for ReadExReq accesses
system.l2.ReadExReq_mshr_miss_rate::total     0.967745                       # mshr miss rate for ReadExReq accesses
system.l2.ReadExReq_avg_mshr_miss_latency::.cpu.data 68536.609988                       # average ReadExReq mshr miss latency
system.l2.ReadExReq_avg_mshr_miss_latency::total 68536.609988                       # average ReadExReq mshr miss latency
system.l2.ReadCleanReq_hits::.cpu.inst          48224                       # number of ReadCleanReq hits
system.l2.ReadCleanReq_hits::total              48224                       # number of ReadCleanReq hits
system.l2.ReadCleanReq_misses::.cpu.inst         2865                       # number of ReadCleanReq misses
system.l2.ReadCleanReq_misses::total             2865                       # number of ReadCleanReq misses
system.l2.ReadCleanReq_miss_latency::.cpu.inst    230781000                       # number of ReadCleanReq miss cycles
system.l2.ReadCleanReq_miss_latency::total    230781000                       # number of ReadCleanReq miss cycles
system.l2.ReadCleanReq_accesses::.cpu.inst        51089                       # number of ReadCleanReq accesses(hits+misses)
system.l2.ReadCleanReq_accesses::total          51089                       # number of ReadCleanReq accesses(hits+misses)
system.l2.ReadCleanReq_miss_rate::.cpu.inst     0.056079                       # miss rate for ReadCleanReq accesses
system.l2.ReadCleanReq_miss_rate::total      0.056079                       # miss rate for ReadCleanReq accesses
system.l2.ReadCleanReq_avg_miss_latency::.cpu.inst 80551.832461                       # average ReadCleanReq miss latency
system.l2.ReadCleanReq_avg_miss_latency::total 80551.832461                       # average ReadCleanReq miss latency
system.l2.ReadCleanReq_mshr_misses::.cpu.inst         2865                       # number of ReadCleanReq MSHR misses
system.l2.ReadCleanReq_mshr_misses::total         2865                       # number of ReadCleanReq MSHR misses
system.l2.ReadCleanReq_mshr_miss_latency::.cpu.inst    202140501                       # number of ReadCleanReq MSHR miss cycles
system.l2.ReadCleanReq_mshr_miss_latency::total    202140501                       # number of ReadCleanReq MSHR miss cycles
system.l2.ReadCleanReq_mshr_miss_rate::.cpu.inst     0.056079                       # mshr miss rate for ReadCleanReq accesses
system.l2.ReadCleanReq_mshr_miss_rate::total     0.056079                       # mshr miss rate for ReadCleanReq accesses
system.l2.ReadCleanReq_avg_mshr_miss_latency::.cpu.inst 70555.148691                       # average ReadCleanReq mshr miss latency
[...]
system.cpu.dcache.demand_accesses::.cpu.data      2338428                       # number of demand (read+write) accesses
system.cpu.dcache.demand_accesses::total      2338428                       # number of demand (read+write) accesses
system.cpu.dcache.overall_accesses::.cpu.data      2338966                       # number of overall (read+write) accesses
system.cpu.dcache.overall_accesses::total      2338966                       # number of overall (read+write) accesses
system.cpu.dcache.demand_miss_rate::.cpu.data     0.038560                       # miss rate for demand accesses
system.cpu.dcache.demand_miss_rate::total     0.038560                       # miss rate for demand accesses
system.cpu.dcache.overall_miss_rate::.cpu.data     0.038553                       # miss rate for overall accesses
system.cpu.dcache.overall_miss_rate::total     0.038553                       # miss rate for overall accesses
system.cpu.dcache.demand_avg_miss_latency::.cpu.data 65926.529955                       # average overall miss latency
system.cpu.dcache.demand_avg_miss_latency::total 65926.529955                       # average overall miss latency
system.cpu.dcache.overall_avg_miss_latency::.cpu.data 65923.605540                       # average overall miss latency
system.cpu.dcache.overall_avg_miss_latency::total 65923.605540                       # average overall miss latency
system.cpu.dcache.blocked_cycles::no_mshrs        42953                       # number of cycles access was blocked
system.cpu.dcache.blocked_cycles::no_targets         1301                       # number of cycles access was blocked
system.cpu.dcache.blocked::no_mshrs              1198                       # number of cycles access was blocked
system.cpu.dcache.blocked::no_targets              13                       # number of cycles access was blocked
system.cpu.dcache.avg_blocked_cycles::no_mshrs    35.853923                       # average number of cycles each access was blocked
system.cpu.dcache.avg_blocked_cycles::no_targets   100.076923                       # average number of cycles each access was blocked
system.cpu.dcache.writebacks::.writebacks        12294                       # number of writebacks
system.cpu.dcache.writebacks::total             12294                       # number of writebacks
system.cpu.dcache.demand_mshr_hits::.cpu.data        75824                       # number of demand (read+write) MSHR hits
system.cpu.dcache.demand_mshr_hits::total        75824                       # number of demand (read+write) MSHR hits
system.cpu.dcache.overall_mshr_hits::.cpu.data        75824                       # number of overall MSHR hits
system.cpu.dcache.overall_mshr_hits::total        75824                       # number of overall MSHR hits
system.cpu.dcache.demand_mshr_misses::.cpu.data        14346                       # number of demand (read+write) MSHR misses
system.cpu.dcache.demand_mshr_misses::total        14346                       # number of demand (read+write) MSHR misses
system.cpu.dcache.overall_mshr_misses::.cpu.data        14349                       # number of overall MSHR misses
system.cpu.dcache.overall_mshr_misses::total        14349                       # number of overall MSHR misses
system.cpu.dcache.demand_mshr_miss_latency::.cpu.data    957435923                       # number of demand (read+write) MSHR miss cycles
system.cpu.dcache.demand_mshr_miss_latency::total    957435923                       # number of demand (read+write) MSHR miss cycles
system.cpu.dcache.overall_mshr_miss_latency::.cpu.data    957733423                       # number of overall MSHR miss cycles
system.cpu.dcache.overall_mshr_miss_latency::total    957733423                       # number of overall MSHR miss cycles
system.cpu.dcache.demand_mshr_miss_rate::.cpu.data     0.006135                       # mshr miss rate for demand accesses
system.cpu.dcache.demand_mshr_miss_rate::total     0.006135                       # mshr miss rate for demand accesses
system.cpu.dcache.overall_mshr_miss_rate::.cpu.data     0.006135                       # mshr miss rate for overall accesses
system.cpu.dcache.overall_mshr_miss_rate::total     0.006135                       # mshr miss rate for overall accesses
system.cpu.dcache.demand_avg_mshr_miss_latency::.cpu.data 66738.876551                       # average overall mshr miss latency
system.cpu.dcache.demand_avg_mshr_miss_latency::total 66738.876551                       # average overall mshr miss latency
system.cpu.dcache.overall_avg_mshr_miss_latency::.cpu.data 66745.656352                       # average overall mshr miss latency
system.cpu.dcache.overall_avg_mshr_miss_latency::total 66745.656352                       # average overall mshr miss latency
system.cpu.dcache.replacements                  13327                       # number of replacements
system.cpu.dcache.ReadReq_hits::.cpu.data      1486626                       # number of ReadReq hits
system.cpu.dcache.ReadReq_hits::total         1486626                       # number of ReadReq hits
system.cpu.dcache.ReadReq_misses::.cpu.data         8646                       # number of ReadReq misses
system.cpu.dcache.ReadReq_misses::total          8646                       # number of ReadReq misses
system.cpu.dcache.ReadReq_miss_latency::.cpu.data    451297000                       # number of ReadReq miss cycles
system.cpu.dcache.ReadReq_miss_latency::total    451297000                       # number of ReadReq miss cycles
system.cpu.dcache.ReadReq_accesses::.cpu.data      1495272                       # number of ReadReq accesses(hits+misses)
system.cpu.dcache.ReadReq_accesses::total      1495272                       # number of ReadReq accesses(hits+misses)
system.cpu.dcache.ReadReq_miss_rate::.cpu.data     0.005782                       # miss rate for ReadReq accesses
system.cpu.dcache.ReadReq_miss_rate::total     0.005782                       # miss rate for ReadReq accesses
system.cpu.dcache.ReadReq_avg_miss_latency::.cpu.data 52197.201018                       # average ReadReq miss latency
system.cpu.dcache.ReadReq_avg_miss_latency::total 52197.201018                       # average ReadReq miss latency
system.cpu.dcache.ReadReq_mshr_hits::.cpu.data         5377                       # number of ReadReq MSHR hits
system.cpu.dcache.ReadReq_mshr_hits::total         5377                       # number of ReadReq MSHR hits
system.cpu.dcache.ReadReq_mshr_misses::.cpu.data         3269                       # number of ReadReq MSHR misses
system.cpu.dcache.ReadReq_mshr_misses::total         3269                       # number of ReadReq MSHR misses
system.cpu.dcache.ReadReq_mshr_miss_latency::.cpu.data    156186500                       # number of ReadReq MSHR miss cycles
system.cpu.dcache.ReadReq_mshr_miss_latency::total    156186500                       # number of ReadReq MSHR miss cycles
system.cpu.dcache.ReadReq_mshr_miss_rate::.cpu.data     0.002186                       # mshr miss rate for ReadReq accesses
system.cpu.dcache.ReadReq_mshr_miss_rate::total     0.002186                       # mshr miss rate for ReadReq accesses
system.cpu.dcache.ReadReq_avg_mshr_miss_latency::.cpu.data 47778.066687                       # average ReadReq mshr miss latency
system.cpu.dcache.ReadReq_avg_mshr_miss_latency::total 47778.066687                       # average ReadReq mshr miss latency
system.cpu.dcache.WriteReq_hits::.cpu.data       761632                       # number of WriteReq hits
system.cpu.dcache.WriteReq_hits::total         761632                       # number of WriteReq hits
system.cpu.dcache.WriteReq_misses::.cpu.data        80785                       # number of WriteReq misses
system.cpu.dcache.WriteReq_misses::total        80785                       # number of WriteReq misses
system.cpu.dcache.WriteReq_miss_latency::.cpu.data   5469530761                       # number of WriteReq miss cycles
system.cpu.dcache.WriteReq_miss_latency::total   5469530761                       # number of WriteReq miss cycles
system.cpu.dcache.WriteReq_accesses::.cpu.data       842417                       # number of WriteReq accesses(hits+misses)
system.cpu.dcache.WriteReq_accesses::total       842417                       # number of WriteReq accesses(hits+misses)
system.cpu.dcache.WriteReq_miss_rate::.cpu.data     0.095897                       # miss rate for WriteReq accesses
system.cpu.dcache.WriteReq_miss_rate::total     0.095897                       # miss rate for WriteReq accesses
system.cpu.dcache.WriteReq_avg_miss_latency::.cpu.data 67704.781346                       # average WriteReq miss latency
system.cpu.dcache.WriteReq_avg_miss_latency::total 67704.781346                       # average WriteReq miss latency
system.cpu.dcache.WriteReq_mshr_hits::.cpu.data        70447                       # number of WriteReq MSHR hits
system.cpu.dcache.WriteReq_mshr_hits::total        70447                       # number of WriteReq MSHR hits
system.cpu.dcache.WriteReq_mshr_misses::.cpu.data        10338                       # number of WriteReq MSHR misses
system.cpu.dcache.WriteReq_mshr_misses::total        10338                       # number of WriteReq MSHR misses
system.cpu.dcache.WriteReq_mshr_miss_latency::.cpu.data    778220978                       # number of WriteReq MSHR miss cycles
system.cpu.dcache.WriteReq_mshr_miss_latency::total    778220978                       # number of WriteReq MSHR miss cycles
system.cpu.dcache.WriteReq_mshr_miss_rate::.cpu.data     0.012272                       # mshr miss rate for WriteReq accesses
system.cpu.dcache.WriteReq_mshr_miss_rate::total     0.012272                       # mshr miss rate for WriteReq accesses
system.cpu.dcache.WriteReq_avg_mshr_miss_latency::.cpu.data 75277.711163                       # average WriteReq mshr miss latency
system.cpu.dcache.WriteReq_avg_mshr_miss_latency::total 75277.711163                       # average WriteReq mshr miss latency
system.cpu.dcache.SoftPFReq_hits::.cpu.data          534                       # number of SoftPFReq hits
system.cpu.dcache.SoftPFReq_hits::total           534                       # number of SoftPFReq hits
system.cpu.dcache.SoftPFReq_misses::.cpu.data            4                       # number of SoftPFReq misses
system.cpu.dcache.SoftPFReq_misses::total            4                       # number of SoftPFReq misses
system.cpu.dcache.SoftPFReq_accesses::.cpu.data          538                       # number of SoftPFReq accesses(hits+misses)
system.cpu.dcache.SoftPFReq_accesses::total          538                       # number of SoftPFReq accesses(hits+misses)
system.cpu.dcache.SoftPFReq_miss_rate::.cpu.data     0.007435                       # miss rate for SoftPFReq accesses
system.cpu.dcache.SoftPFReq_miss_rate::total     0.007435                       # miss rate for SoftPFReq accesses
system.cpu.dcache.SoftPFReq_mshr_misses::.cpu.data            3                       # number of SoftPFReq MSHR misses
system.cpu.dcache.SoftPFReq_mshr_misses::total            3                       # number of SoftPFReq MSHR misses
system.cpu.dcache.SoftPFReq_mshr_miss_latency::.cpu.data       297500                       # number of SoftPFReq MSHR miss cycles
system.cpu.dcache.SoftPFReq_mshr_miss_latency::total       297500                       # number of SoftPFReq MSHR miss cycles
system.cpu.dcache.SoftPFReq_mshr_miss_rate::.cpu.data     0.005576                       # mshr miss rate for SoftPFReq accesses
system.cpu.dcache.SoftPFReq_mshr_miss_rate::total     0.005576                       # mshr miss rate for SoftPFReq accesses
system.cpu.dcache.SoftPFReq_avg_mshr_miss_latency::.cpu.data 99166.666667                       # average SoftPFReq mshr miss latency
system.cpu.dcache.SoftPFReq_avg_mshr_miss_latency::total 99166.666667                       # average SoftPFReq mshr miss latency
system.cpu.dcache.WriteLineReq_misses::.cpu.data          739                       # number of WriteLineReq misses
system.cpu.dcache.WriteLineReq_misses::total          739                       # number of WriteLineReq misses
system.cpu.dcache.WriteLineReq_miss_latency::.cpu.data     23767445                       # number of WriteLineReq miss cycles
system.cpu.dcache.WriteLineReq_miss_latency::total     23767445                       # number of WriteLineReq miss cycles
system.cpu.dcache.WriteLineReq_accesses::.cpu.data          739                       # number of WriteLineReq accesses(hits+misses)
system.cpu.dcache.WriteLineReq_accesses::total          739                       # number of WriteLineReq accesses(hits+misses)
system.cpu.dcache.WriteLineReq_miss_rate::.cpu.data            1                       # miss rate for WriteLineReq accesses
system.cpu.dcache.WriteLineReq_miss_rate::total            1                       # miss rate for WriteLineReq accesses
system.cpu.dcache.WriteLineReq_avg_miss_latency::.cpu.data 32161.630582                       # average WriteLineReq miss latency
system.cpu.dcache.WriteLineReq_avg_miss_latency::total 32161.630582                       # average WriteLineReq miss latency
system.cpu.dcache.WriteLineReq_mshr_misses::.cpu.data          739                       # number of WriteLineReq MSHR misses
system.cpu.dcache.WriteLineReq_mshr_misses::total          739                       # number of WriteLineReq MSHR misses
system.cpu.dcache.WriteLineReq_mshr_miss_latency::.cpu.data     23028445                       # number of WriteLineReq MSHR miss cycles
system.cpu.dcache.WriteLineReq_mshr_miss_latency::total     23028445                       # number of WriteLineReq MSHR miss cycles
system.cpu.dcache.WriteLineReq_mshr_miss_rate::.cpu.data            1                       # mshr miss rate for WriteLineReq accesses
system.cpu.dcache.WriteLineReq_mshr_miss_rate::total            1                       # mshr miss rate for WriteLineReq accesses
system.cpu.dcache.WriteLineReq_avg_mshr_miss_latency::.cpu.data 31161.630582                       # average WriteLineReq mshr miss latency
system.cpu.dcache.WriteLineReq_avg_mshr_miss_latency::total 31161.630582                       # average WriteLineReq mshr miss latency
system.cpu.dcache.LoadLockedReq_hits::.cpu.data          109                       # number of LoadLockedReq hits
system.cpu.dcache.LoadLockedReq_hits::total          109                       # number of LoadLockedReq hits
system.cpu.dcache.LoadLockedReq_misses::.cpu.data            3                       # number of LoadLockedReq misses
system.cpu.dcache.LoadLockedReq_misses::total            3                       # number of LoadLockedReq misses
system.cpu.dcache.LoadLockedReq_miss_latency::.cpu.data       200000                       # number of LoadLockedReq miss cycles
system.cpu.dcache.LoadLockedReq_miss_latency::total       200000                       # number of LoadLockedReq miss cycles
system.cpu.dcache.LoadLockedReq_accesses::.cpu.data          112                       # number of LoadLockedReq accesses(hits+misses)
system.cpu.dcache.LoadLockedReq_accesses::total          112                       # number of LoadLockedReq accesses(hits+misses)
system.cpu.dcache.LoadLockedReq_miss_rate::.cpu.data     0.026786                       # miss rate for LoadLockedReq accesses
system.cpu.dcache.LoadLockedReq_miss_rate::total     0.026786                       # miss rate for LoadLockedReq accesses
system.cpu.dcache.LoadLockedReq_avg_miss_latency::.cpu.data 66666.666667                       # average LoadLockedReq miss latency
system.cpu.dcache.LoadLockedReq_avg_miss_latency::total 66666.666667                       # average LoadLockedReq miss latency
system.cpu.dcache.LoadLockedReq_mshr_hits::.cpu.data            1                       # number of LoadLockedReq MSHR hits
system.cpu.dcache.LoadLockedReq_mshr_hits::total            1                       # number of LoadLockedReq MSHR hits
system.cpu.dcache.LoadLockedReq_mshr_misses::.cpu.data            2                       # number of LoadLockedReq MSHR misses
system.cpu.dcache.LoadLockedReq_mshr_misses::total            2                       # number of LoadLockedReq MSHR misses
system.cpu.dcache.LoadLockedReq_mshr_miss_latency::.cpu.data        97500                       # number of LoadLockedReq MSHR miss cycles
system.cpu.dcache.LoadLockedReq_mshr_miss_latency::total        97500                       # number of LoadLockedReq MSHR miss cycles
system.cpu.dcache.LoadLockedReq_mshr_miss_rate::.cpu.data     0.017857                       # mshr miss rate for LoadLockedReq accesses
system.cpu.dcache.LoadLockedReq_mshr_miss_rate::total     0.017857                       # mshr miss rate for LoadLockedReq accesses
system.cpu.dcache.LoadLockedReq_avg_mshr_miss_latency::.cpu.data        48750                       # average LoadLockedReq mshr miss latency
system.cpu.dcache.LoadLockedReq_avg_mshr_miss_latency::total        48750                       # average LoadLockedReq mshr miss latency
system.cpu.dcache.StoreCondReq_hits::.cpu.data           92                       # number of StoreCondReq hits
system.cpu.dcache.StoreCondReq_hits::total           92                       # number of StoreCondReq hits
system.cpu.dcache.StoreCondReq_accesses::.cpu.data           92                       # number of StoreCondReq accesses(hits+misses)
system.cpu.dcache.StoreCondReq_accesses::total           92                       # number of StoreCondReq accesses(hits+misses)
system.cpu.dcache.power_state.pwrStateResidencyTicks::UNDEFINED   2971642000                       # Cumulative time (in ticks) in various power states
system.cpu.dcache.tags.tagsinuse           989.628461                       # Cycle average of tags in use
system.cpu.dcache.tags.total_refs             2263344                       # Total number of references to valid blocks.
system.cpu.dcache.tags.sampled_refs             14351                       # Sample count of references to valid blocks.
system.cpu.dcache.tags.avg_refs            157.713330                       # Average number of references to valid blocks.
system.cpu.dcache.tags.warmup_cycle            176500                       # Cycle when the warmup percentage was hit.
system.cpu.dcache.tags.occ_blocks::.cpu.data   989.628461                       # Average occupied blocks per requestor
system.cpu.dcache.tags.occ_percent::.cpu.data     0.966434                       # Average percentage of cache occupancy
system.cpu.dcache.tags.occ_percent::total     0.966434                       # Average percentage of cache occupancy
system.cpu.dcache.tags.occ_task_id_blocks::1024         1024                       # Occupied blocks per task id
system.cpu.dcache.tags.age_task_id_blocks_1024::0          123                       # Occupied blocks per task id
system.cpu.dcache.tags.age_task_id_blocks_1024::1          711                       # Occupied blocks per task id
system.cpu.dcache.tags.age_task_id_blocks_1024::2          180                       # Occupied blocks per task id
system.cpu.dcache.tags.age_task_id_blocks_1024::3           10                       # Occupied blocks per task id
system.cpu.dcache.tags.occ_task_id_percent::1024            1                       # Percentage of cache occupancy per task id
system.cpu.dcache.tags.tag_accesses           4692691                       # Number of tag accesses
system.cpu.dcache.tags.data_accesses          4692691                       # Number of data accesses
system.cpu.dcache.tags.power_state.pwrStateResidencyTicks::UNDEFINED   2971642000                       # Cumulative time (in ticks) in various power states
system.cpu.power_state.pwrStateResidencyTicks::ON   2971642000                       # Cumulative time (in ticks) in various power states

---------- End Simulation Statistics   ----------
