
---------- Begin Simulation Statistics ----------
final_tick                                 2686623500                       # Number of ticks from beginning of simulation (restored from checkpoints and never reset)
host_inst_rate                                 106677                       # Simulator instruction rate (inst/s)
host_mem_usage                                 868352                       # Number of bytes of host memory used
host_op_rate                                   126885                       # Simulator op (including micro ops) rate (op/s)
host_seconds                                    93.74                       # Real time elapsed on the host
host_tick_rate                               28659929                       # Simulator tick rate (ticks/s)
sim_freq                                 1000000000000                       # Frequency of simulated ticks
sim_insts                                    10000000                       # Number of instructions simulated
sim_ops                                      11894415                       # Number of ops (including micro ops) simulated
sim_seconds                                  0.002687                       # Number of seconds simulated
sim_ticks                                  2686623500                       # Number of ticks simulated
system.cpu.branchPred.BTBCorrect                    0                       # Number of correct BTB predictions (this stat may not work properly.
system.cpu.branchPred.BTBHitPct             99.611511                       # BTB Hit Percentage
system.cpu.branchPred.BTBHits                  916913                       # Number of BTB hits
system.cpu.branchPred.BTBLookups               920489                       # Number of BTB lookups
system.cpu.branchPred.RASInCorrect                  0                       # Number of incorrect RAS predictions.
system.cpu.branchPred.condIncorrect             33489                       # Number of conditional branches incorrect
system.cpu.branchPred.condPredicted           1424694                       # Number of conditional branches predicted
system.cpu.branchPred.indirectHits               2253                       # Number of indirect target hits.
system.cpu.branchPred.indirectLookups            3184                       # Number of indirect predictor lookups.
system.cpu.branchPred.indirectMisses              931                       # Number of indirect misses.
system.cpu.branchPred.lookups                 1888819                       # Number of BP lookups
system.cpu.branchPred.usedRAS                  170556                       # Number of times the RAS was used to get a target.
system.cpu.branchPredindirectMispredicted          198                       # Number of mispredicted indirect branches.
system.cpu.cc_regfile_reads                   3085683                       # number of cc regfile reads
system.cpu.cc_regfile_writes                  2983785                       # number of cc regfile writes
system.cpu.commit.amos                              0                       # Number of atomic instructions committed
system.cpu.commit.branchMispredicts             32707                       # The number of times a branch was mispredicted
system.cpu.commit.branches                    1651947                       # Number of branches committed
system.cpu.commit.bw_lim_events                910047                       # number cycles where commit BW limit reached
system.cpu.commit.commitNonSpecStalls            1957                       # The number of times commit has been forced to stall to communicate backwards
system.cpu.commit.commitSquashedInsts         1075011                       # The number of squashed insts skipped by commit
system.cpu.commit.committedInsts             10016151                       # Number of instructions committed
system.cpu.commit.committedOps               11910566                       # Number of ops (including micro ops) committed
system.cpu.commit.committed_per_cycle::samples      5126578                       # Number of insts commited each cycle
system.cpu.commit.committed_per_cycle::mean     2.323298                       # Number of insts commited each cycle
system.cpu.commit.committed_per_cycle::stdev     3.003196                       # Number of insts commited each cycle
system.cpu.commit.committed_per_cycle::underflows            0      0.00%      0.00% # Number of insts commited each cycle
system.cpu.commit.committed_per_cycle::0      2276836     44.41%     44.41% # Number of insts commited each cycle
system.cpu.commit.committed_per_cycle::1       778482     15.19%     59.60% # Number of insts commited each cycle
system.cpu.commit.committed_per_cycle::2       415101      8.10%     67.69% # Number of insts commited each cycle
system.cpu.commit.committed_per_cycle::3       300488      5.86%     73.56% # Number of insts commited each cycle
system.cpu.commit.committed_per_cycle::4       251476      4.91%     78.46% # Number of insts commited each cycle
system.cpu.commit.committed_per_cycle::5        84923      1.66%     80.12% # Number of insts commited each cycle
system.cpu.commit.committed_per_cycle::6        75052      1.46%     81.58% # Number of insts commited each cycle
system.cpu.commit.committed_per_cycle::7        34173      0.67%     82.25% # Number of insts commited each cycle
system.cpu.commit.committed_per_cycle::8       910047     17.75%    100.00% # Number of insts commited each cycle
system.cpu.commit.committed_per_cycle::overflows            0      0.00%    100.00% # Number of insts commited each cycle
system.cpu.commit.committed_per_cycle::min_value            0                       # Number of insts commited each cycle
system.cpu.commit.committed_per_cycle::max_value            8                       # Number of insts commited each cycle
system.cpu.commit.committed_per_cycle::total      5126578                       # Number of insts commited each cycle
system.cpu.commit.fp_insts                          0                       # Number of committed floating point instructions.
system.cpu.commit.function_calls               146386                       # Number of function calls committed.
system.cpu.commit.int_insts                   9927237                       # Number of committed integer instructions.
system.cpu.commit.loads                       2000894                       # Number of loads committed
system.cpu.commit.membars                        1922                       # Number of memory barriers committed
system.cpu.commit.op_class_0::No_OpClass         5074      0.04%      0.04% # Class of committed instruction
system.cpu.commit.op_class_0::IntAlu          6631221     55.68%     55.72% # Class of committed instruction
system.cpu.commit.op_class_0::IntMult           53992      0.45%     56.17% # Class of committed instruction
system.cpu.commit.op_class_0::IntDiv               23      0.00%     56.17% # Class of committed instruction
system.cpu.commit.op_class_0::FloatAdd         176152      1.48%     57.65% # Class of committed instruction
system.cpu.commit.op_class_0::FloatCmp          51045      0.43%     58.08% # Class of committed instruction
system.cpu.commit.op_class_0::FloatCvt         201343      1.69%     59.77% # Class of committed instruction
system.cpu.commit.op_class_0::FloatMult        170599      1.43%     61.20% # Class of committed instruction
system.cpu.commit.op_class_0::FloatMultAcc       395486      3.32%     64.52% # Class of committed instruction
system.cpu.commit.op_class_0::FloatDiv          60019      0.50%     65.03% # Class of committed instruction
system.cpu.commit.op_class_0::FloatMisc        247994      2.08%     67.11% # Class of committed instruction
system.cpu.commit.op_class_0::FloatSqrt             0      0.00%     67.11% # Class of committed instruction
system.cpu.commit.op_class_0::SimdAdd            9096      0.08%     67.18% # Class of committed instruction
system.cpu.commit.op_class_0::SimdAddAcc            0      0.00%     67.18% # Class of committed instruction
system.cpu.commit.op_class_0::SimdAlu           11637      0.10%     67.28% # Class of committed instruction
system.cpu.commit.op_class_0::SimdCmp           11420      0.10%     67.38% # Class of committed instruction
system.cpu.commit.op_class_0::SimdCvt             634      0.01%     67.38% # Class of committed instruction
system.cpu.commit.op_class_0::SimdMisc          27829      0.23%     67.62% # Class of committed instruction
system.cpu.commit.op_class_0::SimdMult              0      0.00%     67.62% # Class of committed instruction
system.cpu.commit.op_class_0::SimdMultAcc            0      0.00%     67.62% # Class of committed instruction
system.cpu.commit.op_class_0::SimdShift             0      0.00%     67.62% # Class of committed instruction
system.cpu.commit.op_class_0::SimdShiftAcc            0      0.00%     67.62% # Class of committed instruction
system.cpu.commit.op_class_0::SimdDiv               0      0.00%     67.62% # Class of committed instruction
system.cpu.commit.op_class_0::SimdSqrt              0      0.00%     67.62% # Class of committed instruction
system.cpu.commit.op_class_0::SimdFloatAdd            0      0.00%     67.62% # Class of committed instruction
system.cpu.commit.op_class_0::SimdFloatAlu            0      0.00%     67.62% # Class of committed instruction
system.cpu.commit.op_class_0::SimdFloatCmp            0      0.00%     67.62% # Class of committed instruction
system.cpu.commit.op_class_0::SimdFloatCvt            0      0.00%     67.62% # Class of committed instruction
system.cpu.commit.op_class_0::SimdFloatDiv            0      0.00%     67.62% # Class of committed instruction
system.cpu.commit.op_class_0::SimdFloatMisc            0      0.00%     67.62% # Class of committed instruction
system.cpu.commit.op_class_0::SimdFloatMult            0      0.00%     67.62% # Class of committed instruction
system.cpu.commit.op_class_0::SimdFloatMultAcc            0      0.00%     67.62% # Class of committed instruction
system.cpu.commit.op_class_0::SimdFloatSqrt            0      0.00%     67.62% # Class of committed instruction
system.cpu.commit.op_class_0::SimdReduceAdd            0      0.00%     67.62% # Class of committed instruction
system.cpu.commit.op_class_0::SimdReduceAlu            0      0.00%     67.62% # Class of committed instruction
system.cpu.commit.op_class_0::SimdReduceCmp            0      0.00%     67.62% # Class of committed instruction
system.cpu.commit.op_class_0::SimdFloatReduceAdd            0      0.00%     67.62% # Class of committed instruction
system.cpu.commit.op_class_0::SimdFloatReduceCmp            0      0.00%     67.62% # Class of committed instruction
system.cpu.commit.op_class_0::SimdAes               0      0.00%     67.62% # Class of committed instruction
system.cpu.commit.op_class_0::SimdAesMix            0      0.00%     67.62% # Class of committed instruction
system.cpu.commit.op_class_0::SimdSha1Hash            0      0.00%     67.62% # Class of committed instruction
system.cpu.commit.op_class_0::SimdSha1Hash2            0      0.00%     67.62% # Class of committed instruction
system.cpu.commit.op_class_0::SimdSha256Hash            0      0.00%     67.62% # Class of committed instruction
system.cpu.commit.op_class_0::SimdSha256Hash2            0      0.00%     67.62% # Class of committed instruction
system.cpu.commit.op_class_0::SimdShaSigma2            0      0.00%     67.62% # Class of committed instruction
system.cpu.commit.op_class_0::SimdShaSigma3            0      0.00%     67.62% # Class of committed instruction
system.cpu.commit.op_class_0::SimdPredAlu            0      0.00%     67.62% # Class of committed instruction
system.cpu.commit.op_class_0::MemRead         2000894     16.80%     84.42% # Class of committed instruction
system.cpu.commit.op_class_0::MemWrite        1856108     15.58%    100.00% # Class of committed instruction
system.cpu.commit.op_class_0::FloatMemRead            0      0.00%    100.00% # Class of committed instruction
system.cpu.commit.op_class_0::FloatMemWrite            0      0.00%    100.00% # Class of committed instruction
system.cpu.commit.op_class_0::IprAccess             0      0.00%    100.00% # Class of committed instruction
system.cpu.commit.op_class_0::InstPrefetch            0      0.00%    100.00% # Class of committed instruction
system.cpu.commit.op_class_0::total          11910566                       # Class of committed instruction
system.cpu.commit.refs                        3857002                       # Number of memory references committed
system.cpu.commit.swp_count                         0                       # Number of s/w prefetches committed
system.cpu.commit.vec_insts                   1926437                       # Number of committed Vector instructions.
system.cpu.committedInsts                    10000000                       # Number of Instructions Simulated
system.cpu.committedOps                      11894415                       # Number of Ops (including micro ops) Simulated
system.cpu.cpi                               0.537325                       # CPI: Cycles Per Instruction
system.cpu.cpi_total                         0.537325                       # CPI: Total CPI of All Threads
system.cpu.decode.BlockedCycles               1892153                       # Number of cycles decode is blocked
system.cpu.decode.BranchMispred                   801                       # Number of times decode detected a branch misprediction
system.cpu.decode.BranchResolved               890213                       # Number of times decode resolved a branch
system.cpu.decode.DecodedInsts               13243857                       # Number of instructions handled by decode
system.cpu.decode.IdleCycles                  1105366                       # Number of cycles decode is idle
system.cpu.decode.RunCycles                   1987402                       # Number of cycles decode is running
system.cpu.decode.SquashCycles                  32961                       # Number of cycles decode is squashing
system.cpu.decode.SquashedInsts                  3083                       # Number of squashed instructions handled by decode
system.cpu.decode.UnblockCycles                259993                       # Number of cycles decode is unblocking
system.cpu.dtb.accesses                             0                       # DTB accesses
system.cpu.dtb.align_faults                         0                       # Number of TLB faults due to alignment restrictions
system.cpu.dtb.domain_faults                        0                       # Number of TLB faults due to domain restrictions
system.cpu.dtb.flush_entries                        0                       # Number of entries that have been flushed from TLB
system.cpu.dtb.flush_tlb                            0                       # Number of times complete TLB was flushed
system.cpu.dtb.flush_tlb_asid                       0                       # Number of times TLB was flushed by ASID
system.cpu.dtb.flush_tlb_mva                        0                       # Number of times TLB was flushed by MVA
system.cpu.dtb.flush_tlb_mva_asid                   0                       # Number of times TLB was flushed by MVA & ASID
system.cpu.dtb.hits                                 0                       # DTB hits
system.cpu.dtb.inst_accesses                        0                       # ITB inst accesses
system.cpu.dtb.inst_hits                            0                       # ITB inst hits
system.cpu.dtb.inst_misses                          0                       # ITB inst misses
system.cpu.dtb.misses                               0                       # DTB misses
system.cpu.dtb.perms_faults                         0                       # Number of TLB faults due to permissions restrictions
system.cpu.dtb.prefetch_faults                      0                       # Number of TLB faults due to prefetch
system.cpu.dtb.read_accesses                        0                       # DTB read accesses
system.cpu.dtb.read_hits                            0                       # DTB read hits
system.cpu.dtb.read_misses                          0                       # DTB read misses
system.cpu.dtb.stage2_mmu.stage2_tlb.accesses            0                       # DTB accesses
system.cpu.dtb.stage2_mmu.stage2_tlb.align_faults            0                       # Number of TLB faults due to alignment restrictions
system.cpu.dtb.stage2_mmu.stage2_tlb.domain_faults            0                       # Number of TLB faults due to domain restrictions
system.cpu.dtb.stage2_mmu.stage2_tlb.flush_entries            0                       # Number of entries that have been flushed from TLB
system.cpu.dtb.stage2_mmu.stage2_tlb.flush_tlb            0                       # Number of times complete TLB was flushed
system.cpu.dtb.stage2_mmu.stage2_tlb.flush_tlb_asid            0                       # Number of times TLB was flushed by ASID
system.cpu.dtb.stage2_mmu.stage2_tlb.flush_tlb_mva            0                       # Number of times TLB was flushed by MVA
system.cpu.dtb.stage2_mmu.stage2_tlb.flush_tlb_mva_asid            0                       # Number of times TLB was flushed by MVA & ASID
system.cpu.dtb.stage2_mmu.stage2_tlb.hits            0                       # DTB hits
system.cpu.dtb.stage2_mmu.stage2_tlb.inst_accesses            0                       # ITB inst accesses
system.cpu.dtb.stage2_mmu.stage2_tlb.inst_hits            0                       # ITB inst hits
system.cpu.dtb.stage2_mmu.stage2_tlb.inst_misses            0                       # ITB inst misses
system.cpu.dtb.stage2_mmu.stage2_tlb.misses            0                       # DTB misses
system.cpu.dtb.stage2_mmu.stage2_tlb.perms_faults            0                       # Number of TLB faults due to permissions restrictions
system.cpu.dtb.stage2_mmu.stage2_tlb.prefetch_faults            0                       # Number of TLB faults due to prefetch
system.cpu.dtb.stage2_mmu.stage2_tlb.read_accesses            0                       # DTB read accesses
system.cpu.dtb.stage2_mmu.stage2_tlb.read_hits            0                       # DTB read hits
system.cpu.dtb.stage2_mmu.stage2_tlb.read_misses            0                       # DTB read misses
system.cpu.dtb.stage2_mmu.stage2_tlb.walker.walkRequestOrigin_Requested::Data            0                       # Table walker requests started/completed, data/inst
system.cpu.dtb.stage2_mmu.stage2_tlb.walker.walkRequestOrigin_Requested::Inst            0                       # Table walker requests started/completed, data/inst
system.cpu.dtb.stage2_mmu.stage2_tlb.walker.walkRequestOrigin_Requested::total            0                       # Table walker requests started/completed, data/inst
system.cpu.dtb.stage2_mmu.stage2_tlb.walker.walkRequestOrigin_Completed::Data            0                       # Table walker requests started/completed, data/inst
system.cpu.dtb.stage2_mmu.stage2_tlb.walker.walkRequestOrigin_Completed::Inst            0                       # Table walker requests started/completed, data/inst
system.cpu.dtb.stage2_mmu.stage2_tlb.walker.walkRequestOrigin_Completed::total            0                       # Table walker requests started/completed, data/inst
system.cpu.dtb.stage2_mmu.stage2_tlb.walker.walkRequestOrigin::total            0                       # Table walker requests started/completed, data/inst
system.cpu.dtb.stage2_mmu.stage2_tlb.walker.walks            0                       # Table walker walks requested
system.cpu.dtb.stage2_mmu.stage2_tlb.write_accesses            0                       # DTB write accesses
system.cpu.dtb.stage2_mmu.stage2_tlb.write_hits            0                       # DTB write hits
system.cpu.dtb.stage2_mmu.stage2_tlb.write_misses            0                       # DTB write misses
system.cpu.dtb.walker.walkRequestOrigin_Requested::Data            0                       # Table walker requests started/completed, data/inst
system.cpu.dtb.walker.walkRequestOrigin_Requested::Inst            0                       # Table walker requests started/completed, data/inst
system.cpu.dtb.walker.walkRequestOrigin_Requested::total            0                       # Table walker requests started/completed, data/inst
system.cpu.dtb.walker.walkRequestOrigin_Completed::Data            0                       # Table walker requests started/completed, data/inst
system.cpu.dtb.walker.walkRequestOrigin_Completed::Inst            0                       # Table walker requests started/completed, data/inst
system.cpu.dtb.walker.walkRequestOrigin_Completed::total            0                       # Table walker requests started/completed, data/inst
system.cpu.dtb.walker.walkRequestOrigin::total            0                       # Table walker requests started/completed, data/inst
system.cpu.dtb.walker.walks                         0                       # Table walker walks requested
system.cpu.dtb.write_accesses                       0                       # DTB write accesses
system.cpu.dtb.write_hits                           0                       # DTB write hits
system.cpu.dtb.write_misses                         0                       # DTB write misses
system.cpu.fetch.Branches                     1888819                       # Number of branches that fetch encountered
system.cpu.fetch.CacheLines                   1525391                       # Number of cache lines fetched
system.cpu.fetch.Cycles                       3680973                       # Number of cycles fetch has run and was not squashing or blocked
system.cpu.fetch.IcacheSquashes                 17552                       # Number of outstanding Icache misses that were squashed
system.cpu.fetch.IcacheWaitRetryStallCycles           52                       # Number of stall cycles due to full MSHR
system.cpu.fetch.Insts                       11285048                       # Number of instructions fetch has processed
system.cpu.fetch.MiscStallCycles                    4                       # Number of cycles fetch has spent waiting on interrupts, or bad addresses, or out of MSHRs
system.cpu.fetch.SquashCycles                   67486                       # Number of cycles fetch has spent squashing
system.cpu.fetch.branchRate                  0.351523                       # Number of branch fetches per cycle
system.cpu.fetch.icacheStallCycles            1563103                       # Number of cycles fetch is stalled on an Icache miss
system.cpu.fetch.predictedBranches            1089722                       # Number of branches that fetch has predicted taken
system.cpu.fetch.rate                        2.100228                       # Number of inst fetches per cycle
system.cpu.fetch.rateDist::samples            5277875                       # Number of instructions fetched each cycle (Total)
system.cpu.fetch.rateDist::mean              2.558210                       # Number of instructions fetched each cycle (Total)
system.cpu.fetch.rateDist::stdev             3.202009                       # Number of instructions fetched each cycle (Total)
system.cpu.fetch.rateDist::underflows               0      0.00%      0.00% # Number of instructions fetched each cycle (Total)
system.cpu.fetch.rateDist::0                  2681334     50.80%     50.80% # Number of instructions fetched each cycle (Total)
system.cpu.fetch.rateDist::1                   319062      6.05%     56.85% # Number of instructions fetched each cycle (Total)
system.cpu.fetch.rateDist::2                   279852      5.30%     62.15% # Number of instructions fetched each cycle (Total)
system.cpu.fetch.rateDist::3                   268252      5.08%     67.23% # Number of instructions fetched each cycle (Total)
system.cpu.fetch.rateDist::4                   226118      4.28%     71.52% # Number of instructions fetched each cycle (Total)
system.cpu.fetch.rateDist::5                   222451      4.21%     75.73% # Number of instructions fetched each cycle (Total)
system.cpu.fetch.rateDist::6                   161147      3.05%     78.79% # Number of instructions fetched each cycle (Total)
system.cpu.fetch.rateDist::7                   122489      2.32%     81.11% # Number of instructions fetched each cycle (Total)
system.cpu.fetch.rateDist::8                   997170     18.89%    100.00% # Number of instructions fetched each cycle (Total)
system.cpu.fetch.rateDist::overflows                0      0.00%    100.00% # Number of instructions fetched each cycle (Total)
system.cpu.fetch.rateDist::min_value                0                       # Number of instructions fetched each cycle (Total)
system.cpu.fetch.rateDist::max_value                8                       # Number of instructions fetched each cycle (Total)
system.cpu.fetch.rateDist::total              5277875                       # Number of instructions fetched each cycle (Total)
system.cpu.icache.prefetcher.num_hwpf_issued         1650                       # number of hwpf issued
system.cpu.icache.prefetcher.pfBufferHit            6                       # number of redundant prefetches already in prefetch queue
system.cpu.icache.prefetcher.pfIdentified         1732                       # number of prefetch candidates identified
system.cpu.icache.prefetcher.pfInCache              0                       # number of redundant prefetches already in cache/mshr dropped
system.cpu.icache.prefetcher.pfRemovedFull            0                       # number of prefetches dropped due to prefetch queue size
system.cpu.icache.prefetcher.pfSpanPage           172                       # number of prefetches that crossed the page
system.cpu.idleCycles                           95374                       # Total number of cycles that the CPU has spent unscheduled due to idling
system.cpu.iew.branchMispredicts                38727                       # Number of branch mispredicts detected at execute
system.cpu.iew.exec_branches                  1752216                       # Number of branches executed
system.cpu.iew.exec_nop                         18856                       # number of nop insts executed
system.cpu.iew.exec_rate                     2.352511                       # Inst execution rate
system.cpu.iew.exec_refs                      4120608                       # number of memory reference insts executed
system.cpu.iew.exec_stores                    1958291                       # Number of stores executed
system.cpu.iew.exec_swp                             0                       # number of swp insts executed
system.cpu.iew.iewBlockCycles                  126900                       # Number of cycles IEW is blocking
system.cpu.iew.iewDispLoadInsts               2168841                       # Number of dispatched load instructions
system.cpu.iew.iewDispNonSpecInsts               2020                       # Number of dispatched non-speculative instructions
system.cpu.iew.iewDispSquashedInsts             12219                       # Number of squashed instructions skipped by dispatch
system.cpu.iew.iewDispStoreInsts              2064772                       # Number of dispatched store instructions
system.cpu.iew.iewDispatchedInsts            12986017                       # Number of instructions dispatched to IQ
system.cpu.iew.iewExecLoadInsts               2162317                       # Number of load instructions executed
system.cpu.iew.iewExecSquashedInsts             99749                       # Number of squashed instructions skipped in execute
system.cpu.iew.iewExecutedInsts              12640627                       # Number of executed instructions
system.cpu.iew.iewIQFullEvents                    587                       # Number of times the IQ has become full, causing a stall
system.cpu.iew.iewIdleCycles                        0                       # Number of cycles IEW is idle
system.cpu.iew.iewLSQFullEvents                 30602                       # Number of times the LSQ has become full, causing a stall
system.cpu.iew.iewSquashCycles                  32961                       # Number of cycles IEW is squashing
system.cpu.iew.iewUnblockCycles                 31497                       # Number of cycles IEW is unblocking
system.cpu.iew.lsq.thread0.blockedLoads             0                       # Number of blocked loads due to partial load-store forwarding
system.cpu.iew.lsq.thread0.cacheBlocked           673                       # Number of times an access to memory failed due to the cache being blocked
system.cpu.iew.lsq.thread0.forwLoads            28615                       # Number of loads that had data forwarded from stores
system.cpu.iew.lsq.thread0.ignoredResponses            7                       # Number of memory responses ignored because the instruction is squashed
system.cpu.iew.lsq.thread0.invAddrLoads             0                       # Number of loads ignored due to an invalid address
system.cpu.iew.lsq.thread0.invAddrSwpfs             0                       # Number of software prefetches ignored due to an invalid address
system.cpu.iew.lsq.thread0.memOrderViolation          153                       # Number of memory ordering violations
system.cpu.iew.lsq.thread0.rescheduledLoads        26189                       # Number of loads that were rescheduled
system.cpu.iew.lsq.thread0.squashedLoads       167925                       # Number of loads squashed
system.cpu.iew.lsq.thread0.squashedStores       208651                       # Number of stores squashed
system.cpu.iew.memOrderViolationEvents            153                       # Number of memory order violations
system.cpu.iew.predictedNotTakenIncorrect        20231                       # Number of branches that were predicted not taken incorrectly
system.cpu.iew.predictedTakenIncorrect          18496                       # Number of branches that were predicted taken incorrectly
system.cpu.iew.wb_consumers                  12522775                       # num instructions consuming a value
system.cpu.iew.wb_count                      12570848                       # cumulative count of insts written-back
system.cpu.iew.wb_fanout                     0.584258                       # average fanout of values written-back
system.cpu.iew.wb_producers                   7316528                       # num instructions producing a value
system.cpu.iew.wb_rate                       2.339525                       # insts written-back per cycle
system.cpu.iew.wb_sent                       12588274                       # cumulative count of insts sent to commit
system.cpu.int_regfile_reads                 14406467                       # number of integer regfile reads
system.cpu.int_regfile_writes                 7315084                       # number of integer regfile writes
system.cpu.ipc                               1.861071                       # IPC: Instructions Per Cycle
system.cpu.ipc_total                         1.861071                       # IPC: Total IPC of All Threads
system.cpu.iq.FU_type_0::No_OpClass              5392      0.04%      0.04% # Type of FU issued
system.cpu.iq.FU_type_0::IntAlu               7117091     55.86%     55.90% # Type of FU issued
system.cpu.iq.FU_type_0::IntMult                57711      0.45%     56.36% # Type of FU issued
system.cpu.iq.FU_type_0::IntDiv                    29      0.00%     56.36% # Type of FU issued
system.cpu.iq.FU_type_0::FloatAdd              179679      1.41%     57.77% # Type of FU issued
system.cpu.iq.FU_type_0::FloatCmp               53062      0.42%     58.18% # Type of FU issued
system.cpu.iq.FU_type_0::FloatCvt              206885      1.62%     59.81% # Type of FU issued
system.cpu.iq.FU_type_0::FloatMult             171061      1.34%     61.15% # Type of FU issued
system.cpu.iq.FU_type_0::FloatMultAcc          395923      3.11%     64.26% # Type of FU issued
system.cpu.iq.FU_type_0::FloatDiv               61114      0.48%     64.74% # Type of FU issued
system.cpu.iq.FU_type_0::FloatMisc             257449      2.02%     66.76% # Type of FU issued
system.cpu.iq.FU_type_0::FloatSqrt                  0      0.00%     66.76% # Type of FU issued
system.cpu.iq.FU_type_0::SimdAdd                10132      0.08%     66.84% # Type of FU issued
system.cpu.iq.FU_type_0::SimdAddAcc                 0      0.00%     66.84% # Type of FU issued
system.cpu.iq.FU_type_0::SimdAlu                13321      0.10%     66.94% # Type of FU issued
system.cpu.iq.FU_type_0::SimdCmp                12276      0.10%     67.04% # Type of FU issued
system.cpu.iq.FU_type_0::SimdCvt                  723      0.01%     67.05% # Type of FU issued
system.cpu.iq.FU_type_0::SimdMisc               30681      0.24%     67.29% # Type of FU issued
system.cpu.iq.FU_type_0::SimdMult                   0      0.00%     67.29% # Type of FU issued
system.cpu.iq.FU_type_0::SimdMultAcc                0      0.00%     67.29% # Type of FU issued
system.cpu.iq.FU_type_0::SimdShift                  0      0.00%     67.29% # Type of FU issued
system.cpu.iq.FU_type_0::SimdShiftAcc               0      0.00%     67.29% # Type of FU issued
system.cpu.iq.FU_type_0::SimdDiv                    0      0.00%     67.29% # Type of FU issued
system.cpu.iq.FU_type_0::SimdSqrt                   0      0.00%     67.29% # Type of FU issued
system.cpu.iq.FU_type_0::SimdFloatAdd               0      0.00%     67.29% # Type of FU issued
system.cpu.iq.FU_type_0::SimdFloatAlu               0      0.00%     67.29% # Type of FU issued
system.cpu.iq.FU_type_0::SimdFloatCmp               0      0.00%     67.29% # Type of FU issued
system.cpu.iq.FU_type_0::SimdFloatCvt               0      0.00%     67.29% # Type of FU issued
system.cpu.iq.FU_type_0::SimdFloatDiv               0      0.00%     67.29% # Type of FU issued
system.cpu.iq.FU_type_0::SimdFloatMisc              0      0.00%     67.29% # Type of FU issued
system.cpu.iq.FU_type_0::SimdFloatMult              0      0.00%     67.29% # Type of FU issued
system.cpu.iq.FU_type_0::SimdFloatMultAcc            0      0.00%     67.29% # Type of FU issued
system.cpu.iq.FU_type_0::SimdFloatSqrt              0      0.00%     67.29% # Type of FU issued
system.cpu.iq.FU_type_0::SimdReduceAdd              0      0.00%     67.29% # Type of FU issued
system.cpu.iq.FU_type_0::SimdReduceAlu              0      0.00%     67.29% # Type of FU issued
system.cpu.iq.FU_type_0::SimdReduceCmp              0      0.00%     67.29% # Type of FU issued
system.cpu.iq.FU_type_0::SimdFloatReduceAdd            0      0.00%     67.29% # Type of FU issued
system.cpu.iq.FU_type_0::SimdFloatReduceCmp            0      0.00%     67.29% # Type of FU issued
system.cpu.iq.FU_type_0::SimdAes                    0      0.00%     67.29% # Type of FU issued
system.cpu.iq.FU_type_0::SimdAesMix                 0      0.00%     67.29% # Type of FU issued
system.cpu.iq.FU_type_0::SimdSha1Hash               0      0.00%     67.29% # Type of FU issued
system.cpu.iq.FU_type_0::SimdSha1Hash2              0      0.00%     67.29% # Type of FU issued
system.cpu.iq.FU_type_0::SimdSha256Hash             0      0.00%     67.29% # Type of FU issued
system.cpu.iq.FU_type_0::SimdSha256Hash2            0      0.00%     67.29% # Type of FU issued
system.cpu.iq.FU_type_0::SimdShaSigma2              0      0.00%     67.29% # Type of FU issued
system.cpu.iq.FU_type_0::SimdShaSigma3              0      0.00%     67.29% # Type of FU issued
system.cpu.iq.FU_type_0::SimdPredAlu                0      0.00%     67.29% # Type of FU issued
system.cpu.iq.FU_type_0::MemRead              2180319     17.11%     84.40% # Type of FU issued
system.cpu.iq.FU_type_0::MemWrite             1987533     15.60%    100.00% # Type of FU issued
system.cpu.iq.FU_type_0::FloatMemRead               0      0.00%    100.00% # Type of FU issued
system.cpu.iq.FU_type_0::FloatMemWrite              0      0.00%    100.00% # Type of FU issued
system.cpu.iq.FU_type_0::IprAccess                  0      0.00%    100.00% # Type of FU issued
system.cpu.iq.FU_type_0::InstPrefetch               0      0.00%    100.00% # Type of FU issued
system.cpu.iq.FU_type_0::total               12740381                       # Type of FU issued
system.cpu.iq.fp_alu_accesses                       0                       # Number of floating point alu accesses
system.cpu.iq.fp_inst_queue_reads                   0                       # Number of floating instruction queue reads
system.cpu.iq.fp_inst_queue_wakeup_accesses            0                       # Number of floating instruction queue wakeup accesses
system.cpu.iq.fp_inst_queue_writes                  0                       # Number of floating instruction queue writes
system.cpu.iq.fu_busy_cnt                      500897                       # FU busy when requested
system.cpu.iq.fu_busy_rate                   0.039316                       # FU busy rate (busy events/executed inst)
system.cpu.iq.fu_full::No_OpClass                   0      0.00%      0.00% # attempts to use FU when none available
system.cpu.iq.fu_full::IntAlu                   53801     10.74%     10.74% # attempts to use FU when none available
system.cpu.iq.fu_full::IntMult                     10      0.00%     10.74% # attempts to use FU when none available
system.cpu.iq.fu_full::IntDiv                       0      0.00%     10.74% # attempts to use FU when none available
system.cpu.iq.fu_full::FloatAdd                   449      0.09%     10.83% # attempts to use FU when none available
system.cpu.iq.fu_full::FloatCmp                   582      0.12%     10.95% # attempts to use FU when none available
system.cpu.iq.fu_full::FloatCvt                     0      0.00%     10.95% # attempts to use FU when none available
system.cpu.iq.fu_full::FloatMult                50119     10.01%     20.95% # attempts to use FU when none available
system.cpu.iq.fu_full::FloatMultAcc             67048     13.39%     34.34% # attempts to use FU when none available
system.cpu.iq.fu_full::FloatDiv                  2503      0.50%     34.84% # attempts to use FU when none available
system.cpu.iq.fu_full::FloatMisc                48534      9.69%     44.53% # attempts to use FU when none available
system.cpu.iq.fu_full::FloatSqrt                    0      0.00%     44.53% # attempts to use FU when none available
system.cpu.iq.fu_full::SimdAdd                      0      0.00%     44.53% # attempts to use FU when none available
system.cpu.iq.fu_full::SimdAddAcc                   0      0.00%     44.53% # attempts to use FU when none available
system.cpu.iq.fu_full::SimdAlu                    553      0.11%     44.64% # attempts to use FU when none available
system.cpu.iq.fu_full::SimdCmp                    515      0.10%     44.74% # attempts to use FU when none available
system.cpu.iq.fu_full::SimdCvt                      0      0.00%     44.74% # attempts to use FU when none available
system.cpu.iq.fu_full::SimdMisc                     0      0.00%     44.74% # attempts to use FU when none available
system.cpu.iq.fu_full::SimdMult                     0      0.00%     44.74% # attempts to use FU when none available
system.cpu.iq.fu_full::SimdMultAcc                  0      0.00%     44.74% # attempts to use FU when none available
system.cpu.iq.fu_full::SimdShift                    0      0.00%     44.74% # attempts to use FU when none available
system.cpu.iq.fu_full::SimdShiftAcc                 0      0.00%     44.74% # attempts to use FU when none available
system.cpu.iq.fu_full::SimdDiv                      0      0.00%     44.74% # attempts to use FU when none available
system.cpu.iq.fu_full::SimdSqrt                     0      0.00%     44.74% # attempts to use FU when none available
system.cpu.iq.fu_full::SimdFloatAdd                 0      0.00%     44.74% # attempts to use FU when none available
system.cpu.iq.fu_full::SimdFloatAlu                 0      0.00%     44.74% # attempts to use FU when none available
system.cpu.iq.fu_full::SimdFloatCmp                 0      0.00%     44.74% # attempts to use FU when none available
system.cpu.iq.fu_full::SimdFloatCvt                 0      0.00%     44.74% # attempts to use FU when none available
system.cpu.iq.fu_full::SimdFloatDiv                 0      0.00%     44.74% # attempts to use FU when none available
system.cpu.iq.fu_full::SimdFloatMisc                0      0.00%     44.74% # attempts to use FU when none available
system.cpu.iq.fu_full::SimdFloatMult                0      0.00%     44.74% # attempts to use FU when none available
system.cpu.iq.fu_full::SimdFloatMultAcc             0      0.00%     44.74% # attempts to use FU when none available
system.cpu.iq.fu_full::SimdFloatSqrt                0      0.00%     44.74% # attempts to use FU when none available
system.cpu.iq.fu_full::SimdReduceAdd                0      0.00%     44.74% # attempts to use FU when none available
system.cpu.iq.fu_full::SimdReduceAlu                0      0.00%     44.74% # attempts to use FU when none available
system.cpu.iq.fu_full::SimdReduceCmp                0      0.00%     44.74% # attempts to use FU when none available
system.cpu.iq.fu_full::SimdFloatReduceAdd            0      0.00%     44.74% # attempts to use FU when none available
system.cpu.iq.fu_full::SimdFloatReduceCmp            0      0.00%     44.74% # attempts to use FU when none available
system.cpu.iq.fu_full::SimdAes                      0      0.00%     44.74% # attempts to use FU when none available
system.cpu.iq.fu_full::SimdAesMix                   0      0.00%     44.74% # attempts to use FU when none available
system.cpu.iq.fu_full::SimdSha1Hash                 0      0.00%     44.74% # attempts to use FU when none available
system.cpu.iq.fu_full::SimdSha1Hash2                0      0.00%     44.74% # attempts to use FU when none available
system.cpu.iq.fu_full::SimdSha256Hash               0      0.00%     44.74% # attempts to use FU when none available
system.cpu.iq.fu_full::SimdSha256Hash2              0      0.00%     44.74% # attempts to use FU when none available
system.cpu.iq.fu_full::SimdShaSigma2                0      0.00%     44.74% # attempts to use FU when none available
system.cpu.iq.fu_full::SimdShaSigma3                0      0.00%     44.74% # attempts to use FU when none available
system.cpu.iq.fu_full::SimdPredAlu                  0      0.00%     44.74% # attempts to use FU when none available
system.cpu.iq.fu_full::MemRead                  69408     13.86%     58.60% # attempts to use FU when none available
system.cpu.iq.fu_full::MemWrite                207375     41.40%    100.00% # attempts to use FU when none available
system.cpu.iq.fu_full::FloatMemRead                 0      0.00%    100.00% # attempts to use FU when none available
system.cpu.iq.fu_full::FloatMemWrite                0      0.00%    100.00% # attempts to use FU when none available
system.cpu.iq.fu_full::IprAccess                    0      0.00%    100.00% # attempts to use FU when none available
system.cpu.iq.fu_full::InstPrefetch                 0      0.00%    100.00% # attempts to use FU when none available
system.cpu.iq.int_alu_accesses               11081625                       # Number of integer alu accesses
system.cpu.iq.int_inst_queue_reads           27137347                       # Number of integer instruction queue reads
system.cpu.iq.int_inst_queue_wakeup_accesses     10596153                       # Number of integer instruction queue wakeup accesses
system.cpu.iq.int_inst_queue_writes          11884810                       # Number of integer instruction queue writes
system.cpu.iq.iqInstsAdded                   12965141                       # Number of instructions added to the IQ (excludes non-spec)
system.cpu.iq.iqInstsIssued                  12740381                       # Number of instructions issued
system.cpu.iq.iqNonSpecInstsAdded                2020                       # Number of non-speculative instructions added to the IQ
system.cpu.iq.iqSquashedInstsExamined         1072671                       # Number of squashed instructions iterated over during squash; mainly for profiling
system.cpu.iq.iqSquashedInstsIssued             22260                       # Number of squashed instructions issued
system.cpu.iq.iqSquashedNonSpecRemoved             63                       # Number of squashed non-spec instructions that were removed
system.cpu.iq.iqSquashedOperandsExamined       816981                       # Number of squashed operands that are examined and possibly removed from graph
system.cpu.iq.issued_per_cycle::samples       5277875                       # Number of insts issued each cycle
system.cpu.iq.issued_per_cycle::mean         2.413922                       # Number of insts issued each cycle
system.cpu.iq.issued_per_cycle::stdev        2.419584                       # Number of insts issued each cycle
system.cpu.iq.issued_per_cycle::underflows            0      0.00%      0.00% # Number of insts issued each cycle
system.cpu.iq.issued_per_cycle::0             1688854     32.00%     32.00% # Number of insts issued each cycle
system.cpu.iq.issued_per_cycle::1              783909     14.85%     46.85% # Number of insts issued each cycle
system.cpu.iq.issued_per_cycle::2              544195     10.31%     57.16% # Number of insts issued each cycle
system.cpu.iq.issued_per_cycle::3              691646     13.10%     70.27% # Number of insts issued each cycle
system.cpu.iq.issued_per_cycle::4              478409      9.06%     79.33% # Number of insts issued each cycle
system.cpu.iq.issued_per_cycle::5              355545      6.74%     86.07% # Number of insts issued each cycle
system.cpu.iq.issued_per_cycle::6              287676      5.45%     91.52% # Number of insts issued each cycle
system.cpu.iq.issued_per_cycle::7              205401      3.89%     95.41% # Number of insts issued each cycle
system.cpu.iq.issued_per_cycle::8              242240      4.59%    100.00% # Number of insts issued each cycle
system.cpu.iq.issued_per_cycle::overflows            0      0.00%    100.00% # Number of insts issued each cycle
system.cpu.iq.issued_per_cycle::min_value            0                       # Number of insts issued each cycle
system.cpu.iq.issued_per_cycle::max_value            8                       # Number of insts issued each cycle
system.cpu.iq.issued_per_cycle::total         5277875                       # Number of insts issued each cycle
system.cpu.iq.rate                           2.371076                       # Inst issue rate
system.cpu.iq.vec_alu_accesses                2154261                       # Number of vector alu accesses
system.cpu.iq.vec_inst_queue_reads            4144442                       # Number of vector instruction queue reads
system.cpu.iq.vec_inst_queue_wakeup_accesses      1974695                       # Number of vector instruction queue wakeup accesses
system.cpu.iq.vec_inst_queue_writes           2155173                       # Number of vector instruction queue writes
system.cpu.itb.accesses                             0                       # DTB accesses
system.cpu.itb.align_faults                         0                       # Number of TLB faults due to alignment restrictions
system.cpu.itb.domain_faults                        0                       # Number of TLB faults due to domain restrictions
system.cpu.itb.flush_entries                        0                       # Number of entries that have been flushed from TLB
system.cpu.itb.flush_tlb                            0                       # Number of times complete TLB was flushed
system.cpu.itb.flush_tlb_asid                       0                       # Number of times TLB was flushed by ASID
system.cpu.itb.flush_tlb_mva                        0                       # Number of times TLB was flushed by MVA
system.cpu.itb.flush_tlb_mva_asid                   0                       # Number of times TLB was flushed by MVA & ASID
system.cpu.itb.hits                                 0                       # DTB hits
system.cpu.itb.inst_accesses                        0                       # ITB inst accesses
system.cpu.itb.inst_hits                            0                       # ITB inst hits
system.cpu.itb.inst_misses                          0                       # ITB inst misses
system.cpu.itb.misses                               0                       # DTB misses
system.cpu.itb.perms_faults                         0                       # Number of TLB faults due to permissions restrictions
system.cpu.itb.prefetch_faults                      0                       # Number of TLB faults due to prefetch
system.cpu.itb.read_accesses                        0                       # DTB read accesses
system.cpu.itb.read_hits                            0                       # DTB read hits
system.cpu.itb.read_misses                          0                       # DTB read misses
system.cpu.itb.stage2_mmu.stage2_tlb.accesses            0                       # DTB accesses
system.cpu.itb.stage2_mmu.stage2_tlb.align_faults            0                       # Number of TLB faults due to alignment restrictions
system.cpu.itb.stage2_mmu.stage2_tlb.domain_faults            0                       # Number of TLB faults due to domain restrictions
system.cpu.itb.stage2_mmu.stage2_tlb.flush_entries            0                       # Number of entries that have been flushed from TLB
system.cpu.itb.stage2_mmu.stage2_tlb.flush_tlb            0                       # Number of times complete TLB was flushed
system.cpu.itb.stage2_mmu.stage2_tlb.flush_tlb_asid            0                       # Number of times TLB was flushed by ASID
system.cpu.itb.stage2_mmu.stage2_tlb.flush_tlb_mva            0                       # Number of times TLB was flushed by MVA
system.cpu.itb.stage2_mmu.stage2_tlb.flush_tlb_mva_asid            0                       # Number of times TLB was flushed by MVA & ASID
system.cpu.itb.stage2_mmu.stage2_tlb.hits            0                       # DTB hits
system.cpu.itb.stage2_mmu.stage2_tlb.inst_accesses            0                       # ITB inst accesses
system.cpu.itb.stage2_mmu.stage2_tlb.inst_hits            0                       # ITB inst hits
system.cpu.itb.stage2_mmu.stage2_tlb.inst_misses            0                       # ITB inst misses
system.cpu.itb.stage2_mmu.stage2_tlb.misses            0                       # DTB misses
system.cpu.itb.stage2_mmu.stage2_tlb.perms_faults            0                       # Number of TLB faults due to permissions restrictions
system.cpu.itb.stage2_mmu.stage2_tlb.prefetch_faults            0                       # Number of TLB faults due to prefetch
system.cpu.itb.stage2_mmu.stage2_tlb.read_accesses            0                       # DTB read accesses
system.cpu.itb.stage2_mmu.stage2_tlb.read_hits            0                       # DTB read hits
system.cpu.itb.stage2_mmu.stage2_tlb.read_misses            0                       # DTB read misses
system.cpu.itb.stage2_mmu.stage2_tlb.walker.walkRequestOrigin_Requested::Data            0                       # Table walker requests started/completed, data/inst
system.cpu.itb.stage2_mmu.stage2_tlb.walker.walkRequestOrigin_Requested::Inst            0                       # Table walker requests started/completed, data/inst
system.cpu.itb.stage2_mmu.stage2_tlb.walker.walkRequestOrigin_Requested::total            0                       # Table walker requests started/completed, data/inst
system.cpu.itb.stage2_mmu.stage2_tlb.walker.walkRequestOrigin_Completed::Data            0                       # Table walker requests started/completed, data/inst
system.cpu.itb.stage2_mmu.stage2_tlb.walker.walkRequestOrigin_Completed::Inst            0                       # Table walker requests started/completed, data/inst
system.cpu.itb.stage2_mmu.stage2_tlb.walker.walkRequestOrigin_Completed::total            0                       # Table walker requests started/completed, data/inst
system.cpu.itb.stage2_mmu.stage2_tlb.walker.walkRequestOrigin::total            0                       # Table walker requests started/completed, data/inst
system.cpu.itb.stage2_mmu.stage2_tlb.walker.walks            0                       # Table walker walks requested
system.cpu.itb.stage2_mmu.stage2_tlb.write_accesses            0                       # DTB write accesses
system.cpu.itb.stage2_mmu.stage2_tlb.write_hits            0                       # DTB write hits
system.cpu.itb.stage2_mmu.stage2_tlb.write_misses            0                       # DTB write misses
system.cpu.itb.walker.walkRequestOrigin_Requested::Data            0                       # Table walker requests started/completed, data/inst
system.cpu.itb.walker.walkRequestOrigin_Requested::Inst            0                       # Table walker requests started/completed, data/inst
system.cpu.itb.walker.walkRequestOrigin_Requested::total            0                       # Table walker requests started/completed, data/inst
system.cpu.itb.walker.walkRequestOrigin_Completed::Data            0                       # Table walker requests started/completed, data/inst
system.cpu.itb.walker.walkRequestOrigin_Completed::Inst            0                       # Table walker requests started/completed, data/inst
system.cpu.itb.walker.walkRequestOrigin_Completed::total            0                       # Table walker requests started/completed, data/inst
system.cpu.itb.walker.walkRequestOrigin::total            0                       # Table walker requests started/completed, data/inst
system.cpu.itb.walker.walks                         0                       # Table walker walks requested
system.cpu.itb.write_accesses                       0                       # DTB write accesses
system.cpu.itb.write_hits                           0                       # DTB write hits
system.cpu.itb.write_misses                         0                       # DTB write misses
system.cpu.memDep0.conflictingLoads             59724                       # Number of conflicting loads.
system.cpu.memDep0.conflictingStores            85009                       # Number of conflicting stores.
system.cpu.memDep0.insertedLoads              2168841                       # Number of loads inserted to the mem dependence unit.
system.cpu.memDep0.insertedStores             2064772                       # Number of stores inserted to the mem dependence unit.
system.cpu.misc_regfile_reads                12832837                       # number of misc regfile reads
system.cpu.misc_regfile_writes                1077076                       # number of misc regfile writes
system.cpu.numCycles                          5373249                       # number of cpu cycles simulated
system.cpu.numWorkItemsCompleted                    0                       # number of work items this cpu completed
system.cpu.numWorkItemsStarted                      0                       # number of work items this cpu started
system.cpu.rename.BlockCycles                  194949                       # Number of cycles rename is blocking
system.cpu.rename.CommittedMaps              12621537                       # Number of HB maps that are committed
system.cpu.rename.IQFullEvents                 131820                       # Number of times rename has blocked due to IQ full
system.cpu.rename.IdleCycles                  1208522                       # Number of cycles rename is idle
system.cpu.rename.LQFullEvents                 203961                       # Number of times rename has blocked due to LQ full
system.cpu.rename.ROBFullEvents                 36338                       # Number of times rename has blocked due to ROB full
system.cpu.rename.RenameLookups              26125892                       # Number of register rename lookups that rename has made
system.cpu.rename.RenamedInsts               13122407                       # Number of instructions processed by rename
system.cpu.rename.RenamedOperands            13786357                       # Number of destination operands rename has renamed
system.cpu.rename.RunCycles                   2138091                       # Number of cycles rename is running
system.cpu.rename.SQFullEvents                1053873                       # Number of times rename has blocked due to SQ full
system.cpu.rename.SquashCycles                  32961                       # Number of cycles rename is squashing
system.cpu.rename.UnblockCycles               1441000                       # Number of cycles rename is unblocking
system.cpu.rename.UndoneMaps                  1164704                       # Number of HB maps that are undone due to squashing
system.cpu.rename.int_rename_lookups         14976513                       # Number of integer rename lookups
system.cpu.rename.serializeStallCycles         262352                       # count of cycles rename stalled for serializing inst
system.cpu.rename.serializingInsts              21363                       # count of serializing insts renamed
system.cpu.rename.skidInsts                   1107484                       # count of insts added to the skid buffer
system.cpu.rename.tempSerializingInsts           2031                       # count of temporary serializing insts renamed
system.cpu.rename.vec_rename_lookups          2635678                       # Number of vector rename lookups
system.cpu.rob.rob_reads                     17200496                       # The number of ROB reads
system.cpu.rob.rob_writes                    26122592                       # The number of ROB writes
system.cpu.timesIdled                             850                       # Number of times that the entire CPU went into an idle state and unscheduled itself
system.cpu.vec_regfile_reads                  2519815                       # number of vector regfile reads
system.cpu.vec_regfile_writes                 1887760                       # number of vector regfile writes
system.cpu.workload.numSyscalls                    34                       # Number of system calls
system.membus.snoop_filter.hit_multi_requests            0                       # Number of requests hitting in the snoop filter with multiple (>1) holders of the requested data.
system.membus.snoop_filter.hit_multi_snoops            0                       # Number of snoops hitting in the snoop filter with multiple (>1) holders of the requested data.
system.membus.snoop_filter.hit_single_requests            0                       # Number of requests hitting in the snoop filter with a single holder of the requested data.
system.membus.snoop_filter.hit_single_snoops            0                       # Number of snoops hitting in the snoop filter with a single holder of the requested data.
system.membus.snoop_filter.tot_requests          6976                       # Total number of requests made to the snoop filter.
system.membus.snoop_filter.tot_snoops               0                       # Total number of snoops made to the snoop filter.
system.tol2bus.snoop_filter.hit_multi_requests            1                       # Number of requests hitting in the snoop filter with multiple (>1) holders of the requested data.
system.tol2bus.snoop_filter.hit_multi_snoops            0                       # Number of snoops hitting in the snoop filter with multiple (>1) holders of the requested data.
system.tol2bus.snoop_filter.hit_single_requests         9186                       # Number of requests hitting in the snoop filter with a single holder of the requested data.
system.tol2bus.snoop_filter.hit_single_snoops            0                       # Number of snoops hitting in the snoop filter with a single holder of the requested data.
system.tol2bus.snoop_filter.tot_requests        20468                       # Total number of requests made to the snoop filter.
system.tol2bus.snoop_filter.tot_snoops              0                       # Total number of snoops made to the snoop filter.
system.membus.trans_dist::ReadResp               1724                       # Transaction distribution
system.membus.trans_dist::ReadExReq              5240                       # Transaction distribution
system.membus.trans_dist::ReadExResp             5240                       # Transaction distribution
system.membus.trans_dist::ReadSharedReq          1724                       # Transaction distribution
system.membus.trans_dist::InvalidateReq            12                       # Transaction distribution
system.membus.pkt_count_system.l2.mem_side::system.mem_ctrls.port        13940                       # Packet count per connected master and slave (bytes)
system.membus.pkt_count::total                  13940                       # Packet count per connected master and slave (bytes)
system.membus.pkt_size_system.l2.mem_side::system.mem_ctrls.port       445696                       # Cumulative packet size per connected master and slave (bytes)
system.membus.pkt_size::total                  445696                       # Cumulative packet size per connected master and slave (bytes)
system.membus.snoops                                0                       # Total snoops (count)
system.membus.snoopTraffic                          0                       # Total snoop traffic (bytes)
system.membus.snoop_fanout::samples              6976                       # Request fanout histogram
system.membus.snoop_fanout::mean                    0                       # Request fanout histogram
system.membus.snoop_fanout::stdev                   0                       # Request fanout histogram
system.membus.snoop_fanout::underflows              0      0.00%      0.00% # Request fanout histogram
system.membus.snoop_fanout::0                    6976    100.00%    100.00% # Request fanout histogram
system.membus.snoop_fanout::1                       0      0.00%    100.00% # Request fanout histogram
system.membus.snoop_fanout::overflows               0      0.00%    100.00% # Request fanout histogram
system.membus.snoop_fanout::min_value               0                       # Request fanout histogram
system.membus.snoop_fanout::max_value               0                       # Request fanout histogram
system.membus.snoop_fanout::total                6976                       # Request fanout histogram
system.membus.reqLayer0.occupancy             8718000                       # Layer occupancy (ticks)
system.membus.reqLayer0.utilization               0.3                       # Layer utilization (%)
system.membus.respLayer1.occupancy           36820000                       # Layer occupancy (ticks)
system.membus.respLayer1.utilization              1.4                       # Layer utilization (%)
system.membus.power_state.pwrStateResidencyTicks::UNDEFINED   2686623500                       # Cumulative time (in ticks) in various power states
system.tol2bus.trans_dist::ReadResp              5471                       # Transaction distribution
system.tol2bus.trans_dist::WritebackDirty         8080                       # Transaction distribution
system.tol2bus.trans_dist::WritebackClean          199                       # Transaction distribution
system.tol2bus.trans_dist::CleanEvict             907                       # Transaction distribution
system.tol2bus.trans_dist::ReadExReq             5637                       # Transaction distribution
system.tol2bus.trans_dist::ReadExResp            5637                       # Transaction distribution
system.tol2bus.trans_dist::ReadCleanReq          1271                       # Transaction distribution
system.tol2bus.trans_dist::ReadSharedReq         4200                       # Transaction distribution
system.tol2bus.trans_dist::InvalidateReq          174                       # Transaction distribution
system.tol2bus.trans_dist::InvalidateResp          174                       # Transaction distribution
system.tol2bus.pkt_count_system.cpu.icache.mem_side::system.l2.cpu_side         2741                       # Packet count per connected master and slave (bytes)
system.tol2bus.pkt_count_system.cpu.dcache.mem_side::system.l2.cpu_side        29009                       # Packet count per connected master and slave (bytes)
system.tol2bus.pkt_count::total                 31750                       # Packet count per connected master and slave (bytes)
system.tol2bus.pkt_size_system.cpu.icache.mem_side::system.l2.cpu_side        94080                       # Cumulative packet size per connected master and slave (bytes)
system.tol2bus.pkt_size_system.cpu.dcache.mem_side::system.l2.cpu_side      1146688                       # Cumulative packet size per connected master and slave (bytes)
system.tol2bus.pkt_size::total                1240768                       # Cumulative packet size per connected master and slave (bytes)
system.tol2bus.snoops                               0                       # Total snoops (count)
system.tol2bus.snoopTraffic                         0                       # Total snoop traffic (bytes)
system.tol2bus.snoop_fanout::samples            11282                       # Request fanout histogram
system.tol2bus.snoop_fanout::mean            0.000089                       # Request fanout histogram
system.tol2bus.snoop_fanout::stdev           0.009415                       # Request fanout histogram
system.tol2bus.snoop_fanout::underflows             0      0.00%      0.00% # Request fanout histogram
system.tol2bus.snoop_fanout::0                  11281     99.99%     99.99% # Request fanout histogram
system.tol2bus.snoop_fanout::1                      1      0.01%    100.00% # Request fanout histogram
system.tol2bus.snoop_fanout::2                      0      0.00%    100.00% # Request fanout histogram
system.tol2bus.snoop_fanout::overflows              0      0.00%    100.00% # Request fanout histogram
system.tol2bus.snoop_fanout::min_value              0                       # Request fanout histogram
system.tol2bus.snoop_fanout::max_value              1                       # Request fanout histogram
system.tol2bus.snoop_fanout::total              11282                       # Request fanout histogram
system.tol2bus.reqLayer0.occupancy           18518480                       # Layer occupancy (ticks)
system.tol2bus.reqLayer0.utilization              0.7                       # Layer utilization (%)
system.tol2bus.respLayer1.occupancy          14842500                       # Layer occupancy (ticks)
system.tol2bus.respLayer1.utilization             0.6                       # Layer utilization (%)
system.tol2bus.respLayer0.occupancy           1906500                       # Layer occupancy (ticks)
system.tol2bus.respLayer0.utilization             0.1                       # Layer utilization (%)
system.tol2bus.power_state.pwrStateResidencyTicks::UNDEFINED   2686623500                       # Cumulative time (in ticks) in various power states
system.voltage_domain.voltage                       1                       # Voltage in Volts
system.clk_domain.clock                          1000                       # Clock period in ticks
system.l2.demand_hits::.cpu.inst                   28                       # number of demand (read+write) hits
system.l2.demand_hits::.cpu.data                 4103                       # number of demand (read+write) hits
system.l2.demand_hits::.cpu.icache.prefetcher           13                       # number of demand (read+write) hits
system.l2.demand_hits::total                     4144                       # number of demand (read+write) hits
system.l2.overall_hits::.cpu.inst                  28                       # number of overall hits
system.l2.overall_hits::.cpu.data                4103                       # number of overall hits
system.l2.overall_hits::.cpu.icache.prefetcher           13                       # number of overall hits
system.l2.overall_hits::total                    4144                       # number of overall hits
system.l2.demand_misses::.cpu.inst               1230                       # number of demand (read+write) misses
system.l2.demand_misses::.cpu.data               5734                       # number of demand (read+write) misses
system.l2.demand_misses::total                   6964                       # number of demand (read+write) misses
system.l2.overall_misses::.cpu.inst              1230                       # number of overall misses
system.l2.overall_misses::.cpu.data              5734                       # number of overall misses
system.l2.overall_misses::total                  6964                       # number of overall misses
system.l2.demand_miss_latency::.cpu.inst     96727000                       # number of demand (read+write) miss cycles
system.l2.demand_miss_latency::.cpu.data    458032000                       # number of demand (read+write) miss cycles
system.l2.demand_miss_latency::total        554759000                       # number of demand (read+write) miss cycles
system.l2.overall_miss_latency::.cpu.inst     96727000                       # number of overall miss cycles
system.l2.overall_miss_latency::.cpu.data    458032000                       # number of overall miss cycles
system.l2.overall_miss_latency::total       554759000                       # number of overall miss cycles
system.l2.demand_accesses::.cpu.inst             1258                       # number of demand (read+write) accesses
system.l2.demand_accesses::.cpu.data             9837                       # number of demand (read+write) accesses
system.l2.demand_accesses::.cpu.icache.prefetcher           13                       # number of demand (read+write) accesses
system.l2.demand_accesses::total                11108                       # number of demand (read+write) accesses
system.l2.overall_accesses::.cpu.inst            1258                       # number of overall (read+write) accesses
system.l2.overall_accesses::.cpu.data            9837                       # number of overall (read+write) accesses
system.l2.overall_accesses::.cpu.icache.prefetcher           13                       # number of overall (read+write) accesses
system.l2.overall_accesses::total               11108                       # number of overall (read+write) accesses
system.l2.demand_miss_rate::.cpu.inst        0.977742                       # miss rate for demand accesses
system.l2.demand_miss_rate::.cpu.data        0.582901                       # miss rate for demand accesses
system.l2.demand_miss_rate::total            0.626936                       # miss rate for demand accesses
system.l2.overall_miss_rate::.cpu.inst       0.977742                       # miss rate for overall accesses
system.l2.overall_miss_rate::.cpu.data       0.582901                       # miss rate for overall accesses
system.l2.overall_miss_rate::total           0.626936                       # miss rate for overall accesses
system.l2.demand_avg_miss_latency::.cpu.inst 78639.837398                       # average overall miss latency
system.l2.demand_avg_miss_latency::.cpu.data 79880.013952                       # average overall miss latency
system.l2.demand_avg_miss_latency::total 79660.970706                       # average overall miss latency
system.l2.overall_avg_miss_latency::.cpu.inst 78639.837398                       # average overall miss latency
system.l2.overall_avg_miss_latency::.cpu.data 79880.013952                       # average overall miss latency
system.l2.overall_avg_miss_latency::total 79660.970706                       # average overall miss latency
system.l2.blocked_cycles::no_mshrs                  0                       # number of cycles access was blocked
system.l2.blocked_cycles::no_targets                0                       # number of cycles access was blocked
system.l2.blocked::no_mshrs                         0                       # number of cycles access was blocked
system.l2.blocked::no_targets                       0                       # number of cycles access was blocked
system.l2.avg_blocked_cycles::no_mshrs            nan                       # average number of cycles each access was blocked
system.l2.avg_blocked_cycles::no_targets          nan                       # average number of cycles each access was blocked
system.l2.demand_mshr_misses::.cpu.inst          1230                       # number of demand (read+write) MSHR misses
system.l2.demand_mshr_misses::.cpu.data          5734                       # number of demand (read+write) MSHR misses
system.l2.demand_mshr_misses::total              6964                       # number of demand (read+write) MSHR misses
system.l2.overall_mshr_misses::.cpu.inst         1230                       # number of overall MSHR misses
system.l2.overall_mshr_misses::.cpu.data         5734                       # number of overall MSHR misses
system.l2.overall_mshr_misses::total             6964                       # number of overall MSHR misses
system.l2.demand_mshr_miss_latency::.cpu.inst     84427000                       # number of demand (read+write) MSHR miss cycles
system.l2.demand_mshr_miss_latency::.cpu.data    400692000                       # number of demand (read+write) MSHR miss cycles
system.l2.demand_mshr_miss_latency::total    485119000                       # number of demand (read+write) MSHR miss cycles
system.l2.overall_mshr_miss_latency::.cpu.inst     84427000                       # number of overall MSHR miss cycles
system.l2.overall_mshr_miss_latency::.cpu.data    400692000                       # number of overall MSHR miss cycles
system.l2.overall_mshr_miss_latency::total    485119000                       # number of overall MSHR miss cycles
system.l2.demand_mshr_miss_rate::.cpu.inst     0.977742                       # mshr miss rate for demand accesses
system.l2.demand_mshr_miss_rate::.cpu.data     0.582901                       # mshr miss rate for demand accesses
system.l2.demand_mshr_miss_rate::total       0.626936                       # mshr miss rate for demand accesses
system.l2.overall_mshr_miss_rate::.cpu.inst     0.977742                       # mshr miss rate for overall accesses
system.l2.overall_mshr_miss_rate::.cpu.data     0.582901                       # mshr miss rate for overall accesses
system.l2.overall_mshr_miss_rate::total      0.626936                       # mshr miss rate for overall accesses
system.l2.demand_avg_mshr_miss_latency::.cpu.inst 68639.837398                       # average overall mshr miss latency
system.l2.demand_avg_mshr_miss_latency::.cpu.data 69880.013952                       # average overall mshr miss latency
system.l2.demand_avg_mshr_miss_latency::total 69660.970706                       # average overall mshr miss latency
system.l2.overall_avg_mshr_miss_latency::.cpu.inst 68639.837398                       # average overall mshr miss latency
system.l2.overall_avg_mshr_miss_latency::.cpu.data 69880.013952                       # average overall mshr miss latency
system.l2.overall_avg_mshr_miss_latency::total 69660.970706                       # average overall mshr miss latency
system.l2.replacements                              0                       # number of replacements
system.l2.WritebackDirty_hits::.writebacks         8080                       # number of WritebackDirty hits
system.l2.WritebackDirty_hits::total             8080                       # number of WritebackDirty hits
system.l2.WritebackDirty_accesses::.writebacks         8080                       # number of WritebackDirty accesses(hits+misses)
system.l2.WritebackDirty_accesses::total         8080                       # number of WritebackDirty accesses(hits+misses)
system.l2.WritebackClean_hits::.writebacks          198                       # number of WritebackClean hits
system.l2.WritebackClean_hits::total              198                       # number of WritebackClean hits
system.l2.WritebackClean_accesses::.writebacks          198                       # number of WritebackClean accesses(hits+misses)
system.l2.WritebackClean_accesses::total          198                       # number of WritebackClean accesses(hits+misses)
system.l2.ReadExReq_hits::.cpu.data               397                       # number of ReadExReq hits
system.l2.ReadExReq_hits::total                   397                       # number of ReadExReq hits
system.l2.ReadExReq_misses::.cpu.data            5240                       # number of ReadExReq misses
system.l2.ReadExReq_misses::total                5240                       # number of ReadExReq misses
system.l2.ReadExReq_miss_latency::.cpu.data    418835500                       # number of ReadExReq miss cycles
system.l2.ReadExReq_miss_latency::total     418835500                       # number of ReadExReq miss cycles
system.l2.ReadExReq_accesses::.cpu.data          5637                       # number of ReadExReq accesses(hits+misses)
system.l2.ReadExReq_accesses::total              5637                       # number of ReadExReq accesses(hits+misses)
system.l2.ReadExReq_miss_rate::.cpu.data     0.929572                       # miss rate for ReadExReq accesses
system.l2.ReadExReq_miss_rate::total         0.929572                       # miss rate for ReadExReq accesses
system.l2.ReadExReq_avg_miss_latency::.cpu.data 79930.438931                       # average ReadExReq miss latency
system.l2.ReadExReq_avg_miss_latency::total 79930.438931                       # average ReadExReq miss latency
system.l2.ReadExReq_mshr_misses::.cpu.data         5240                       # number of ReadExReq MSHR misses
system.l2.ReadExReq_mshr_misses::total           5240                       # number of ReadExReq MSHR misses
system.l2.ReadExReq_mshr_miss_latency::.cpu.data    366435500                       # number of ReadExReq MSHR miss cycles
system.l2.ReadExReq_mshr_miss_latency::total    366435500                       # number of ReadExReq MSHR miss cycles
system.l2.ReadExReq_mshr_miss_rate::.cpu.data     0.929572                       # mshr miss rate for ReadExReq accesses
system.l2.ReadExReq_mshr_miss_rate::total     0.929572                       # mshr miss rate for ReadExReq accesses
system.l2.ReadExReq_avg_mshr_miss_latency::.cpu.data 69930.438931                       # average ReadExReq mshr miss latency
system.l2.ReadExReq_avg_mshr_miss_latency::total 69930.438931                       # average ReadExReq mshr miss latency
system.l2.ReadCleanReq_hits::.cpu.inst             28                       # number of ReadCleanReq hits
system.l2.ReadCleanReq_hits::.cpu.icache.prefetcher           13                       # number of ReadCleanReq hits
system.l2.ReadCleanReq_hits::total                 41                       # number of ReadCleanReq hits
system.l2.ReadCleanReq_misses::.cpu.inst         1230                       # number of ReadCleanReq misses
system.l2.ReadCleanReq_misses::total             1230                       # number of ReadCleanReq misses
system.l2.ReadCleanReq_miss_latency::.cpu.inst     96727000                       # number of ReadCleanReq miss cycles
system.l2.ReadCleanReq_miss_latency::total     96727000                       # number of ReadCleanReq miss cycles
system.l2.ReadCleanReq_accesses::.cpu.inst         1258                       # number of ReadCleanReq accesses(hits+misses)
system.l2.ReadCleanReq_accesses::.cpu.icache.prefetcher           13                       # number of ReadCleanReq accesses(hits+misses)
system.l2.ReadCleanReq_accesses::total           1271                       # number of ReadCleanReq accesses(hits+misses)
[...]
system.cpu.icache.tags.occ_task_id_percent::1024     0.520020                       # Percentage of cache occupancy per task id
system.cpu.icache.tags.tag_accesses           3052053                       # Number of tag accesses
system.cpu.icache.tags.data_accesses          3052053                       # Number of data accesses
system.cpu.icache.tags.power_state.pwrStateResidencyTicks::UNDEFINED   2686623500                       # Cumulative time (in ticks) in various power states
system.cpu.dtb.walker.power_state.pwrStateResidencyTicks::UNDEFINED   2686623500                       # Cumulative time (in ticks) in various power states
system.cpu.dtb.stage2_mmu.stage2_tlb.walker.power_state.pwrStateResidencyTicks::UNDEFINED   2686623500                       # Cumulative time (in ticks) in various power states
system.cpu.itb.walker.power_state.pwrStateResidencyTicks::UNDEFINED   2686623500                       # Cumulative time (in ticks) in various power states
system.cpu.itb.stage2_mmu.stage2_tlb.walker.power_state.pwrStateResidencyTicks::UNDEFINED   2686623500                       # Cumulative time (in ticks) in various power states
system.cpu.dcache.demand_hits::.cpu.data      3938421                       # number of demand (read+write) hits
system.cpu.dcache.demand_hits::total          3938421                       # number of demand (read+write) hits
system.cpu.dcache.overall_hits::.cpu.data      3939595                       # number of overall hits
system.cpu.dcache.overall_hits::total         3939595                       # number of overall hits
system.cpu.dcache.demand_misses::.cpu.data        39348                       # number of demand (read+write) misses
system.cpu.dcache.demand_misses::total          39348                       # number of demand (read+write) misses
system.cpu.dcache.overall_misses::.cpu.data        39361                       # number of overall misses
system.cpu.dcache.overall_misses::total         39361                       # number of overall misses
system.cpu.dcache.demand_miss_latency::.cpu.data   1876601076                       # number of demand (read+write) miss cycles
system.cpu.dcache.demand_miss_latency::total   1876601076                       # number of demand (read+write) miss cycles
system.cpu.dcache.overall_miss_latency::.cpu.data   1876601076                       # number of overall miss cycles
system.cpu.dcache.overall_miss_latency::total   1876601076                       # number of overall miss cycles
system.cpu.dcache.demand_accesses::.cpu.data      3977769                       # number of demand (read+write) accesses
system.cpu.dcache.demand_accesses::total      3977769                       # number of demand (read+write) accesses
system.cpu.dcache.overall_accesses::.cpu.data      3978956                       # number of overall (read+write) accesses
system.cpu.dcache.overall_accesses::total      3978956                       # number of overall (read+write) accesses
system.cpu.dcache.demand_miss_rate::.cpu.data     0.009892                       # miss rate for demand accesses
system.cpu.dcache.demand_miss_rate::total     0.009892                       # miss rate for demand accesses
system.cpu.dcache.overall_miss_rate::.cpu.data     0.009892                       # miss rate for overall accesses
system.cpu.dcache.overall_miss_rate::total     0.009892                       # miss rate for overall accesses
system.cpu.dcache.demand_avg_miss_latency::.cpu.data 47692.413236                       # average overall miss latency
system.cpu.dcache.demand_avg_miss_latency::total 47692.413236                       # average overall miss latency
system.cpu.dcache.overall_avg_miss_latency::.cpu.data 47676.661569                       # average overall miss latency
system.cpu.dcache.overall_avg_miss_latency::total 47676.661569                       # average overall miss latency
system.cpu.dcache.blocked_cycles::no_mshrs        22969                       # number of cycles access was blocked
system.cpu.dcache.blocked_cycles::no_targets            0                       # number of cycles access was blocked
system.cpu.dcache.blocked::no_mshrs               688                       # number of cycles access was blocked
system.cpu.dcache.blocked::no_targets               0                       # number of cycles access was blocked
system.cpu.dcache.avg_blocked_cycles::no_mshrs    33.385174                       # average number of cycles each access was blocked
system.cpu.dcache.avg_blocked_cycles::no_targets          nan                       # average number of cycles each access was blocked
system.cpu.dcache.writebacks::.writebacks         8080                       # number of writebacks
system.cpu.dcache.writebacks::total              8080                       # number of writebacks
system.cpu.dcache.demand_mshr_hits::.cpu.data        29341                       # number of demand (read+write) MSHR hits
system.cpu.dcache.demand_mshr_hits::total        29341                       # number of demand (read+write) MSHR hits
system.cpu.dcache.overall_mshr_hits::.cpu.data        29341                       # number of overall MSHR hits
system.cpu.dcache.overall_mshr_hits::total        29341                       # number of overall MSHR hits
system.cpu.dcache.demand_mshr_misses::.cpu.data        10007                       # number of demand (read+write) MSHR misses
system.cpu.dcache.demand_mshr_misses::total        10007                       # number of demand (read+write) MSHR misses
system.cpu.dcache.overall_mshr_misses::.cpu.data        10011                       # number of overall MSHR misses
system.cpu.dcache.overall_mshr_misses::total        10011                       # number of overall MSHR misses
system.cpu.dcache.demand_mshr_miss_latency::.cpu.data    518592991                       # number of demand (read+write) MSHR miss cycles
system.cpu.dcache.demand_mshr_miss_latency::total    518592991                       # number of demand (read+write) MSHR miss cycles
system.cpu.dcache.overall_mshr_miss_latency::.cpu.data    518895991                       # number of overall MSHR miss cycles
system.cpu.dcache.overall_mshr_miss_latency::total    518895991                       # number of overall MSHR miss cycles
system.cpu.dcache.demand_mshr_miss_rate::.cpu.data     0.002516                       # mshr miss rate for demand accesses
system.cpu.dcache.demand_mshr_miss_rate::total     0.002516                       # mshr miss rate for demand accesses
system.cpu.dcache.overall_mshr_miss_rate::.cpu.data     0.002516                       # mshr miss rate for overall accesses
system.cpu.dcache.overall_mshr_miss_rate::total     0.002516                       # mshr miss rate for overall accesses
system.cpu.dcache.demand_avg_mshr_miss_latency::.cpu.data 51823.022984                       # average overall mshr miss latency
system.cpu.dcache.demand_avg_mshr_miss_latency::total 51823.022984                       # average overall mshr miss latency
system.cpu.dcache.overall_avg_mshr_miss_latency::.cpu.data 51832.583258                       # average overall mshr miss latency
system.cpu.dcache.overall_avg_mshr_miss_latency::total 51832.583258                       # average overall mshr miss latency
system.cpu.dcache.replacements                   8987                       # number of replacements
system.cpu.dcache.ReadReq_hits::.cpu.data      2109430                       # number of ReadReq hits
system.cpu.dcache.ReadReq_hits::total         2109430                       # number of ReadReq hits
system.cpu.dcache.ReadReq_misses::.cpu.data        13520                       # number of ReadReq misses
system.cpu.dcache.ReadReq_misses::total         13520                       # number of ReadReq misses
system.cpu.dcache.ReadReq_miss_latency::.cpu.data    336196000                       # number of ReadReq miss cycles
system.cpu.dcache.ReadReq_miss_latency::total    336196000                       # number of ReadReq miss cycles
system.cpu.dcache.ReadReq_accesses::.cpu.data      2122950                       # number of ReadReq accesses(hits+misses)
system.cpu.dcache.ReadReq_accesses::total      2122950                       # number of ReadReq accesses(hits+misses)
system.cpu.dcache.ReadReq_miss_rate::.cpu.data     0.006368                       # miss rate for ReadReq accesses
system.cpu.dcache.ReadReq_miss_rate::total     0.006368                       # miss rate for ReadReq accesses
system.cpu.dcache.ReadReq_avg_miss_latency::.cpu.data 24866.568047                       # average ReadReq miss latency
system.cpu.dcache.ReadReq_avg_miss_latency::total 24866.568047                       # average ReadReq miss latency
system.cpu.dcache.ReadReq_mshr_hits::.cpu.data         9324                       # number of ReadReq MSHR hits
system.cpu.dcache.ReadReq_mshr_hits::total         9324                       # number of ReadReq MSHR hits
system.cpu.dcache.ReadReq_mshr_misses::.cpu.data         4196                       # number of ReadReq MSHR misses
system.cpu.dcache.ReadReq_mshr_misses::total         4196                       # number of ReadReq MSHR misses
system.cpu.dcache.ReadReq_mshr_miss_latency::.cpu.data     84654000                       # number of ReadReq MSHR miss cycles
system.cpu.dcache.ReadReq_mshr_miss_latency::total     84654000                       # number of ReadReq MSHR miss cycles
system.cpu.dcache.ReadReq_mshr_miss_rate::.cpu.data     0.001976                       # mshr miss rate for ReadReq accesses
system.cpu.dcache.ReadReq_mshr_miss_rate::total     0.001976                       # mshr miss rate for ReadReq accesses
system.cpu.dcache.ReadReq_avg_mshr_miss_latency::.cpu.data 20174.928503                       # average ReadReq mshr miss latency
system.cpu.dcache.ReadReq_avg_mshr_miss_latency::total 20174.928503                       # average ReadReq mshr miss latency
system.cpu.dcache.WriteReq_hits::.cpu.data      1828991                       # number of WriteReq hits
system.cpu.dcache.WriteReq_hits::total        1828991                       # number of WriteReq hits
system.cpu.dcache.WriteReq_misses::.cpu.data        25821                       # number of WriteReq misses
system.cpu.dcache.WriteReq_misses::total        25821                       # number of WriteReq misses
system.cpu.dcache.WriteReq_miss_latency::.cpu.data   1540182578                       # number of WriteReq miss cycles
system.cpu.dcache.WriteReq_miss_latency::total   1540182578                       # number of WriteReq miss cycles
system.cpu.dcache.WriteReq_accesses::.cpu.data      1854812                       # number of WriteReq accesses(hits+misses)
system.cpu.dcache.WriteReq_accesses::total      1854812                       # number of WriteReq accesses(hits+misses)
system.cpu.dcache.WriteReq_miss_rate::.cpu.data     0.013921                       # miss rate for WriteReq accesses
system.cpu.dcache.WriteReq_miss_rate::total     0.013921                       # miss rate for WriteReq accesses
system.cpu.dcache.WriteReq_avg_miss_latency::.cpu.data 59648.448085                       # average WriteReq miss latency
system.cpu.dcache.WriteReq_avg_miss_latency::total 59648.448085                       # average WriteReq miss latency
system.cpu.dcache.WriteReq_mshr_hits::.cpu.data        20017                       # number of WriteReq MSHR hits
system.cpu.dcache.WriteReq_mshr_hits::total        20017                       # number of WriteReq MSHR hits
system.cpu.dcache.WriteReq_mshr_misses::.cpu.data         5804                       # number of WriteReq MSHR misses
system.cpu.dcache.WriteReq_mshr_misses::total         5804                       # number of WriteReq MSHR misses
system.cpu.dcache.WriteReq_mshr_miss_latency::.cpu.data    433723493                       # number of WriteReq MSHR miss cycles
system.cpu.dcache.WriteReq_mshr_miss_latency::total    433723493                       # number of WriteReq MSHR miss cycles
system.cpu.dcache.WriteReq_mshr_miss_rate::.cpu.data     0.003129                       # mshr miss rate for WriteReq accesses
system.cpu.dcache.WriteReq_mshr_miss_rate::total     0.003129                       # mshr miss rate for WriteReq accesses
system.cpu.dcache.WriteReq_avg_mshr_miss_latency::.cpu.data 74728.375775                       # average WriteReq mshr miss latency
system.cpu.dcache.WriteReq_avg_mshr_miss_latency::total 74728.375775                       # average WriteReq mshr miss latency
system.cpu.dcache.SoftPFReq_hits::.cpu.data         1174                       # number of SoftPFReq hits
system.cpu.dcache.SoftPFReq_hits::total          1174                       # number of SoftPFReq hits
system.cpu.dcache.SoftPFReq_misses::.cpu.data           13                       # number of SoftPFReq misses
system.cpu.dcache.SoftPFReq_misses::total           13                       # number of SoftPFReq misses
system.cpu.dcache.SoftPFReq_accesses::.cpu.data         1187                       # number of SoftPFReq accesses(hits+misses)
system.cpu.dcache.SoftPFReq_accesses::total         1187                       # number of SoftPFReq accesses(hits+misses)
system.cpu.dcache.SoftPFReq_miss_rate::.cpu.data     0.010952                       # miss rate for SoftPFReq accesses
system.cpu.dcache.SoftPFReq_miss_rate::total     0.010952                       # miss rate for SoftPFReq accesses
system.cpu.dcache.SoftPFReq_mshr_misses::.cpu.data            4                       # number of SoftPFReq MSHR misses
system.cpu.dcache.SoftPFReq_mshr_misses::total            4                       # number of SoftPFReq MSHR misses
system.cpu.dcache.SoftPFReq_mshr_miss_latency::.cpu.data       303000                       # number of SoftPFReq MSHR miss cycles
system.cpu.dcache.SoftPFReq_mshr_miss_latency::total       303000                       # number of SoftPFReq MSHR miss cycles
system.cpu.dcache.SoftPFReq_mshr_miss_rate::.cpu.data     0.003370                       # mshr miss rate for SoftPFReq accesses
system.cpu.dcache.SoftPFReq_mshr_miss_rate::total     0.003370                       # mshr miss rate for SoftPFReq accesses
system.cpu.dcache.SoftPFReq_avg_mshr_miss_latency::.cpu.data        75750                       # average SoftPFReq mshr miss latency
system.cpu.dcache.SoftPFReq_avg_mshr_miss_latency::total        75750                       # average SoftPFReq mshr miss latency
system.cpu.dcache.WriteLineReq_misses::.cpu.data            7                       # number of WriteLineReq misses
system.cpu.dcache.WriteLineReq_misses::total            7                       # number of WriteLineReq misses
system.cpu.dcache.WriteLineReq_miss_latency::.cpu.data       222498                       # number of WriteLineReq miss cycles
system.cpu.dcache.WriteLineReq_miss_latency::total       222498                       # number of WriteLineReq miss cycles
system.cpu.dcache.WriteLineReq_accesses::.cpu.data            7                       # number of WriteLineReq accesses(hits+misses)
system.cpu.dcache.WriteLineReq_accesses::total            7                       # number of WriteLineReq accesses(hits+misses)
system.cpu.dcache.WriteLineReq_miss_rate::.cpu.data            1                       # miss rate for WriteLineReq accesses
system.cpu.dcache.WriteLineReq_miss_rate::total            1                       # miss rate for WriteLineReq accesses
system.cpu.dcache.WriteLineReq_avg_miss_latency::.cpu.data 31785.428571                       # average WriteLineReq miss latency
system.cpu.dcache.WriteLineReq_avg_miss_latency::total 31785.428571                       # average WriteLineReq miss latency
system.cpu.dcache.WriteLineReq_mshr_misses::.cpu.data            7                       # number of WriteLineReq MSHR misses
system.cpu.dcache.WriteLineReq_mshr_misses::total            7                       # number of WriteLineReq MSHR misses
system.cpu.dcache.WriteLineReq_mshr_miss_latency::.cpu.data       215498                       # number of WriteLineReq MSHR miss cycles
system.cpu.dcache.WriteLineReq_mshr_miss_latency::total       215498                       # number of WriteLineReq MSHR miss cycles
system.cpu.dcache.WriteLineReq_mshr_miss_rate::.cpu.data            1                       # mshr miss rate for WriteLineReq accesses
system.cpu.dcache.WriteLineReq_mshr_miss_rate::total            1                       # mshr miss rate for WriteLineReq accesses
system.cpu.dcache.WriteLineReq_avg_mshr_miss_latency::.cpu.data 30785.428571                       # average WriteLineReq mshr miss latency
system.cpu.dcache.WriteLineReq_avg_mshr_miss_latency::total 30785.428571                       # average WriteLineReq mshr miss latency
system.cpu.dcache.LoadLockedReq_hits::.cpu.data         1952                       # number of LoadLockedReq hits
system.cpu.dcache.LoadLockedReq_hits::total         1952                       # number of LoadLockedReq hits
system.cpu.dcache.LoadLockedReq_accesses::.cpu.data         1952                       # number of LoadLockedReq accesses(hits+misses)
system.cpu.dcache.LoadLockedReq_accesses::total         1952                       # number of LoadLockedReq accesses(hits+misses)
system.cpu.dcache.StoreCondReq_hits::.cpu.data         1922                       # number of StoreCondReq hits
system.cpu.dcache.StoreCondReq_hits::total         1922                       # number of StoreCondReq hits
system.cpu.dcache.StoreCondReq_accesses::.cpu.data         1922                       # number of StoreCondReq accesses(hits+misses)
system.cpu.dcache.StoreCondReq_accesses::total         1922                       # number of StoreCondReq accesses(hits+misses)
system.cpu.dcache.power_state.pwrStateResidencyTicks::UNDEFINED   2686623500                       # Cumulative time (in ticks) in various power states
system.cpu.dcache.tags.tagsinuse           889.415485                       # Cycle average of tags in use
system.cpu.dcache.tags.total_refs             3953480                       # Total number of references to valid blocks.
system.cpu.dcache.tags.sampled_refs             10011                       # Sample count of references to valid blocks.
system.cpu.dcache.tags.avg_refs            394.913595                       # Average number of references to valid blocks.
system.cpu.dcache.tags.warmup_cycle            249500                       # Cycle when the warmup percentage was hit.
system.cpu.dcache.tags.occ_blocks::.cpu.data   889.415485                       # Average occupied blocks per requestor
system.cpu.dcache.tags.occ_percent::.cpu.data     0.868570                       # Average percentage of cache occupancy
system.cpu.dcache.tags.occ_percent::total     0.868570                       # Average percentage of cache occupancy
system.cpu.dcache.tags.occ_task_id_blocks::1024         1024                       # Occupied blocks per task id
system.cpu.dcache.tags.age_task_id_blocks_1024::0          220                       # Occupied blocks per task id
system.cpu.dcache.tags.age_task_id_blocks_1024::1          652                       # Occupied blocks per task id
system.cpu.dcache.tags.age_task_id_blocks_1024::2          152                       # Occupied blocks per task id
system.cpu.dcache.tags.occ_task_id_percent::1024            1                       # Percentage of cache occupancy per task id
system.cpu.dcache.tags.tag_accesses           7975671                       # Number of tag accesses
system.cpu.dcache.tags.data_accesses          7975671                       # Number of data accesses
system.cpu.dcache.tags.power_state.pwrStateResidencyTicks::UNDEFINED   2686623500                       # Cumulative time (in ticks) in various power states
system.cpu.power_state.pwrStateResidencyTicks::ON   2686623500                       # Cumulative time (in ticks) in various power states

---------- End Simulation Statistics   ----------
