
---------- Begin Simulation Statistics ----------
final_tick                                11811079500                       # Number of ticks from beginning of simulation (restored from checkpoints and never reset)
host_inst_rate                                 142698                       # Simulator instruction rate (inst/s)
host_mem_usage                                 859744                       # Number of bytes of host memory used
host_op_rate                                   158857                       # Simulator op (including micro ops) rate (op/s)
host_seconds                                    70.08                       # Real time elapsed on the host
host_tick_rate                              168541260                       # Simulator tick rate (ticks/s)
sim_freq                                 1000000000000                       # Frequency of simulated ticks
sim_insts                                    10000001                       # Number of instructions simulated
sim_ops                                      11132385                       # Number of ops (including micro ops) simulated
sim_seconds                                  0.011811                       # Number of seconds simulated
sim_ticks                                 11811079500                       # Number of ticks simulated
system.cpu.branchPred.BTBCorrect                    0                       # Number of correct BTB predictions (this stat may not work properly.
system.cpu.branchPred.BTBHitPct             98.357724                       # BTB Hit Percentage
system.cpu.branchPred.BTBHits                  949214                       # Number of BTB hits
system.cpu.branchPred.BTBLookups               965063                       # Number of BTB lookups
system.cpu.branchPred.RASInCorrect                  0                       # Number of incorrect RAS predictions.
system.cpu.branchPred.condIncorrect             40847                       # Number of conditional branches incorrect
system.cpu.branchPred.condPredicted           1467927                       # Number of conditional branches predicted
system.cpu.branchPred.indirectHits              34255                       # Number of indirect target hits.
system.cpu.branchPred.indirectLookups           34429                       # Number of indirect predictor lookups.
system.cpu.branchPred.indirectMisses              174                       # Number of indirect misses.
system.cpu.branchPred.lookups                 1978696                       # Number of BP lookups
system.cpu.branchPred.usedRAS                  183409                       # Number of times the RAS was used to get a target.
system.cpu.branchPredindirectMispredicted           71                       # Number of mispredicted indirect branches.
system.cpu.cc_regfile_reads                   3506214                       # number of cc regfile reads
system.cpu.cc_regfile_writes                  3499955                       # number of cc regfile writes
system.cpu.commit.amos                              0                       # Number of atomic instructions committed
system.cpu.commit.branchMispredicts             37742                       # The number of times a branch was mispredicted
system.cpu.commit.branches                    1873361                       # Number of branches committed
system.cpu.commit.bw_lim_events                304247                       # number cycles where commit BW limit reached
system.cpu.commit.commitNonSpecStalls           11441                       # The number of times commit has been forced to stall to communicate backwards
system.cpu.commit.commitSquashedInsts          235352                       # The number of squashed insts skipped by commit
system.cpu.commit.committedInsts             10008566                       # Number of instructions committed
system.cpu.commit.committedOps               11140950                       # Number of ops (including micro ops) committed
system.cpu.commit.committed_per_cycle::samples     20931162                       # Number of insts commited each cycle
system.cpu.commit.committed_per_cycle::mean     0.532266                       # Number of insts commited each cycle
system.cpu.commit.committed_per_cycle::stdev     1.374207                       # Number of insts commited each cycle
system.cpu.commit.committed_per_cycle::underflows            0      0.00%      0.00% # Number of insts commited each cycle
system.cpu.commit.committed_per_cycle::0     16452971     78.61%     78.61% # Number of insts commited each cycle
system.cpu.commit.committed_per_cycle::1      1906569      9.11%     87.71% # Number of insts commited each cycle
system.cpu.commit.committed_per_cycle::2      1106229      5.29%     93.00% # Number of insts commited each cycle
system.cpu.commit.committed_per_cycle::3       575382      2.75%     95.75% # Number of insts commited each cycle
system.cpu.commit.committed_per_cycle::4       235946      1.13%     96.88% # Number of insts commited each cycle
system.cpu.commit.committed_per_cycle::5       229284      1.10%     97.97% # Number of insts commited each cycle
system.cpu.commit.committed_per_cycle::6        72141      0.34%     98.32% # Number of insts commited each cycle
system.cpu.commit.committed_per_cycle::7        48393      0.23%     98.55% # Number of insts commited each cycle
system.cpu.commit.committed_per_cycle::8       304247      1.45%    100.00% # Number of insts commited each cycle
system.cpu.commit.committed_per_cycle::overflows            0      0.00%    100.00% # Number of insts commited each cycle
system.cpu.commit.committed_per_cycle::min_value            0                       # Number of insts commited each cycle
system.cpu.commit.committed_per_cycle::max_value            8                       # Number of insts commited each cycle
system.cpu.commit.committed_per_cycle::total     20931162                       # Number of insts commited each cycle
system.cpu.commit.fp_insts                          0                       # Number of committed floating point instructions.
system.cpu.commit.function_calls               183162                       # Number of function calls committed.
system.cpu.commit.int_insts                   9941906                       # Number of committed integer instructions.
system.cpu.commit.loads                       1623294                       # Number of loads committed
system.cpu.commit.membars                       11427                       # Number of memory barriers committed
system.cpu.commit.op_class_0::No_OpClass        11428      0.10%      0.10% # Class of committed instruction
system.cpu.commit.op_class_0::IntAlu          7562940     67.88%     67.99% # Class of committed instruction
system.cpu.commit.op_class_0::IntMult          227263      2.04%     70.03% # Class of committed instruction
system.cpu.commit.op_class_0::IntDiv                4      0.00%     70.03% # Class of committed instruction
system.cpu.commit.op_class_0::FloatAdd              0      0.00%     70.03% # Class of committed instruction
system.cpu.commit.op_class_0::FloatCmp          11420      0.10%     70.13% # Class of committed instruction
system.cpu.commit.op_class_0::FloatCvt           5710      0.05%     70.18% # Class of committed instruction
system.cpu.commit.op_class_0::FloatMult             0      0.00%     70.18% # Class of committed instruction
system.cpu.commit.op_class_0::FloatMultAcc            0      0.00%     70.18% # Class of committed instruction
system.cpu.commit.op_class_0::FloatDiv           5710      0.05%     70.23% # Class of committed instruction
system.cpu.commit.op_class_0::FloatMisc         22840      0.21%     70.44% # Class of committed instruction
system.cpu.commit.op_class_0::FloatSqrt             0      0.00%     70.44% # Class of committed instruction
system.cpu.commit.op_class_0::SimdAdd           22868      0.21%     70.64% # Class of committed instruction
system.cpu.commit.op_class_0::SimdAddAcc            0      0.00%     70.64% # Class of committed instruction
system.cpu.commit.op_class_0::SimdAlu           45709      0.41%     71.05% # Class of committed instruction
system.cpu.commit.op_class_0::SimdCmp           45712      0.41%     71.46% # Class of committed instruction
system.cpu.commit.op_class_0::SimdCvt               0      0.00%     71.46% # Class of committed instruction
system.cpu.commit.op_class_0::SimdMisc          34285      0.31%     71.77% # Class of committed instruction
system.cpu.commit.op_class_0::SimdMult              0      0.00%     71.77% # Class of committed instruction
system.cpu.commit.op_class_0::SimdMultAcc            0      0.00%     71.77% # Class of committed instruction
system.cpu.commit.op_class_0::SimdShift             0      0.00%     71.77% # Class of committed instruction
system.cpu.commit.op_class_0::SimdShiftAcc            0      0.00%     71.77% # Class of committed instruction
system.cpu.commit.op_class_0::SimdDiv               0      0.00%     71.77% # Class of committed instruction
system.cpu.commit.op_class_0::SimdSqrt              0      0.00%     71.77% # Class of committed instruction
system.cpu.commit.op_class_0::SimdFloatAdd            0      0.00%     71.77% # Class of committed instruction
system.cpu.commit.op_class_0::SimdFloatAlu            0      0.00%     71.77% # Class of committed instruction
system.cpu.commit.op_class_0::SimdFloatCmp            0      0.00%     71.77% # Class of committed instruction
system.cpu.commit.op_class_0::SimdFloatCvt            0      0.00%     71.77% # Class of committed instruction
system.cpu.commit.op_class_0::SimdFloatDiv            0      0.00%     71.77% # Class of committed instruction
system.cpu.commit.op_class_0::SimdFloatMisc            0      0.00%     71.77% # Class of committed instruction
system.cpu.commit.op_class_0::SimdFloatMult            0      0.00%     71.77% # Class of committed instruction
system.cpu.commit.op_class_0::SimdFloatMultAcc            0      0.00%     71.77% # Class of committed instruction
system.cpu.commit.op_class_0::SimdFloatSqrt            0      0.00%     71.77% # Class of committed instruction
system.cpu.commit.op_class_0::SimdReduceAdd            0      0.00%     71.77% # Class of committed instruction
system.cpu.commit.op_class_0::SimdReduceAlu            0      0.00%     71.77% # Class of committed instruction
system.cpu.commit.op_class_0::SimdReduceCmp            0      0.00%     71.77% # Class of committed instruction
system.cpu.commit.op_class_0::SimdFloatReduceAdd            0      0.00%     71.77% # Class of committed instruction
system.cpu.commit.op_class_0::SimdFloatReduceCmp            0      0.00%     71.77% # Class of committed instruction
system.cpu.commit.op_class_0::SimdAes               0      0.00%     71.77% # Class of committed instruction
system.cpu.commit.op_class_0::SimdAesMix            0      0.00%     71.77% # Class of committed instruction
system.cpu.commit.op_class_0::SimdSha1Hash            0      0.00%     71.77% # Class of committed instruction
system.cpu.commit.op_class_0::SimdSha1Hash2            0      0.00%     71.77% # Class of committed instruction
system.cpu.commit.op_class_0::SimdSha256Hash            0      0.00%     71.77% # Class of committed instruction
system.cpu.commit.op_class_0::SimdSha256Hash2            0      0.00%     71.77% # Class of committed instruction
system.cpu.commit.op_class_0::SimdShaSigma2            0      0.00%     71.77% # Class of committed instruction
system.cpu.commit.op_class_0::SimdShaSigma3            0      0.00%     71.77% # Class of committed instruction
system.cpu.commit.op_class_0::SimdPredAlu            0      0.00%     71.77% # Class of committed instruction
system.cpu.commit.op_class_0::MemRead         1623294     14.57%     86.34% # Class of committed instruction
system.cpu.commit.op_class_0::MemWrite        1521767     13.66%    100.00% # Class of committed instruction
system.cpu.commit.op_class_0::FloatMemRead            0      0.00%    100.00% # Class of committed instruction
system.cpu.commit.op_class_0::FloatMemWrite            0      0.00%    100.00% # Class of committed instruction
system.cpu.commit.op_class_0::IprAccess             0      0.00%    100.00% # Class of committed instruction
system.cpu.commit.op_class_0::InstPrefetch            0      0.00%    100.00% # Class of committed instruction
system.cpu.commit.op_class_0::total          11140950                       # Class of committed instruction
system.cpu.commit.refs                        3145061                       # Number of memory references committed
system.cpu.commit.swp_count                         0                       # Number of s/w prefetches committed
system.cpu.commit.vec_insts                    337102                       # Number of committed Vector instructions.
system.cpu.committedInsts                    10000001                       # Number of Instructions Simulated
system.cpu.committedOps                      11132385                       # Number of Ops (including micro ops) Simulated
system.cpu.cpi                               2.362216                       # CPI: Cycles Per Instruction
system.cpu.cpi_total                         2.362216                       # CPI: Total CPI of All Threads
system.cpu.decode.BlockedCycles                402238                       # Number of cycles decode is blocked
system.cpu.decode.BranchMispred                  3108                       # Number of times decode detected a branch misprediction
system.cpu.decode.BranchResolved               943425                       # Number of times decode resolved a branch
system.cpu.decode.DecodedInsts               11556587                       # Number of instructions handled by decode
system.cpu.decode.IdleCycles                 18192874                       # Number of cycles decode is idle
system.cpu.decode.RunCycles                   2340645                       # Number of cycles decode is running
system.cpu.decode.SquashCycles                  37793                       # Number of cycles decode is squashing
system.cpu.decode.SquashedInsts                   834                       # Number of squashed instructions handled by decode
system.cpu.decode.UnblockCycles                 11641                       # Number of cycles decode is unblocking
system.cpu.dtb.accesses                             0                       # DTB accesses
system.cpu.dtb.align_faults                         0                       # Number of TLB faults due to alignment restrictions
system.cpu.dtb.domain_faults                        0                       # Number of TLB faults due to domain restrictions
system.cpu.dtb.flush_entries                        0                       # Number of entries that have been flushed from TLB
system.cpu.dtb.flush_tlb                            0                       # Number of times complete TLB was flushed
system.cpu.dtb.flush_tlb_asid                       0                       # Number of times TLB was flushed by ASID
system.cpu.dtb.flush_tlb_mva                        0                       # Number of times TLB was flushed by MVA
system.cpu.dtb.flush_tlb_mva_asid                   0                       # Number of times TLB was flushed by MVA & ASID
system.cpu.dtb.hits                                 0                       # DTB hits
system.cpu.dtb.inst_accesses                        0                       # ITB inst accesses
system.cpu.dtb.inst_hits                            0                       # ITB inst hits
system.cpu.dtb.inst_misses                          0                       # ITB inst misses
system.cpu.dtb.misses                               0                       # DTB misses
system.cpu.dtb.perms_faults                         0                       # Number of TLB faults due to permissions restrictions
system.cpu.dtb.prefetch_faults                      0                       # Number of TLB faults due to prefetch
system.cpu.dtb.read_accesses                        0                       # DTB read accesses
system.cpu.dtb.read_hits                            0                       # DTB read hits
system.cpu.dtb.read_misses                          0                       # DTB read misses
system.cpu.dtb.stage2_mmu.stage2_tlb.accesses            0                       # DTB accesses
system.cpu.dtb.stage2_mmu.stage2_tlb.align_faults            0                       # Number of TLB faults due to alignment restrictions
system.cpu.dtb.stage2_mmu.stage2_tlb.domain_faults            0                       # Number of TLB faults due to domain restrictions
system.cpu.dtb.stage2_mmu.stage2_tlb.flush_entries            0                       # Number of entries that have been flushed from TLB
system.cpu.dtb.stage2_mmu.stage2_tlb.flush_tlb            0                       # Number of times complete TLB was flushed
system.cpu.dtb.stage2_mmu.stage2_tlb.flush_tlb_asid            0                       # Number of times TLB was flushed by ASID
system.cpu.dtb.stage2_mmu.stage2_tlb.flush_tlb_mva            0                       # Number of times TLB was flushed by MVA
system.cpu.dtb.stage2_mmu.stage2_tlb.flush_tlb_mva_asid            0                       # Number of times TLB was flushed by MVA & ASID
system.cpu.dtb.stage2_mmu.stage2_tlb.hits            0                       # DTB hits
system.cpu.dtb.stage2_mmu.stage2_tlb.inst_accesses            0                       # ITB inst accesses
system.cpu.dtb.stage2_mmu.stage2_tlb.inst_hits            0                       # ITB inst hits
system.cpu.dtb.stage2_mmu.stage2_tlb.inst_misses            0                       # ITB inst misses
system.cpu.dtb.stage2_mmu.stage2_tlb.misses            0                       # DTB misses
system.cpu.dtb.stage2_mmu.stage2_tlb.perms_faults            0                       # Number of TLB faults due to permissions restrictions
system.cpu.dtb.stage2_mmu.stage2_tlb.prefetch_faults            0                       # Number of TLB faults due to prefetch
system.cpu.dtb.stage2_mmu.stage2_tlb.read_accesses            0                       # DTB read accesses
system.cpu.dtb.stage2_mmu.stage2_tlb.read_hits            0                       # DTB read hits
system.cpu.dtb.stage2_mmu.stage2_tlb.read_misses            0                       # DTB read misses
system.cpu.dtb.stage2_mmu.stage2_tlb.walker.walkRequestOrigin_Requested::Data            0                       # Table walker requests started/completed, data/inst
system.cpu.dtb.stage2_mmu.stage2_tlb.walker.walkRequestOrigin_Requested::Inst            0                       # Table walker requests started/completed, data/inst
system.cpu.dtb.stage2_mmu.stage2_tlb.walker.walkRequestOrigin_Requested::total            0                       # Table walker requests started/completed, data/inst
system.cpu.dtb.stage2_mmu.stage2_tlb.walker.walkRequestOrigin_Completed::Data            0                       # Table walker requests started/completed, data/inst
system.cpu.dtb.stage2_mmu.stage2_tlb.walker.walkRequestOrigin_Completed::Inst            0                       # Table walker requests started/completed, data/inst
system.cpu.dtb.stage2_mmu.stage2_tlb.walker.walkRequestOrigin_Completed::total            0                       # Table walker requests started/completed, data/inst
system.cpu.dtb.stage2_mmu.stage2_tlb.walker.walkRequestOrigin::total            0                       # Table walker requests started/completed, data/inst
system.cpu.dtb.stage2_mmu.stage2_tlb.walker.walks            0                       # Table walker walks requested
system.cpu.dtb.stage2_mmu.stage2_tlb.write_accesses            0                       # DTB write accesses
system.cpu.dtb.stage2_mmu.stage2_tlb.write_hits            0                       # DTB write hits
system.cpu.dtb.stage2_mmu.stage2_tlb.write_misses            0                       # DTB write misses
system.cpu.dtb.walker.walkRequestOrigin_Requested::Data            0                       # Table walker requests started/completed, data/inst
system.cpu.dtb.walker.walkRequestOrigin_Requested::Inst            0                       # Table walker requests started/completed, data/inst
system.cpu.dtb.walker.walkRequestOrigin_Requested::total            0                       # Table walker requests started/completed, data/inst
system.cpu.dtb.walker.walkRequestOrigin_Completed::Data            0                       # Table walker requests started/completed, data/inst
system.cpu.dtb.walker.walkRequestOrigin_Completed::Inst            0                       # Table walker requests started/completed, data/inst
system.cpu.dtb.walker.walkRequestOrigin_Completed::total            0                       # Table walker requests started/completed, data/inst
system.cpu.dtb.walker.walkRequestOrigin::total            0                       # Table walker requests started/completed, data/inst
system.cpu.dtb.walker.walks                         0                       # Table walker walks requested
system.cpu.dtb.write_accesses                       0                       # DTB write accesses
system.cpu.dtb.write_hits                           0                       # DTB write hits
system.cpu.dtb.write_misses                         0                       # DTB write misses
system.cpu.fetch.Branches                     1978696                       # Number of branches that fetch encountered
system.cpu.fetch.CacheLines                   1669910                       # Number of cache lines fetched
system.cpu.fetch.Cycles                       2367392                       # Number of cycles fetch has run and was not squashing or blocked
system.cpu.fetch.IcacheSquashes                 25181                       # Number of outstanding Icache misses that were squashed
system.cpu.fetch.IcacheWaitRetryStallCycles           47                       # Number of stall cycles due to full MSHR
system.cpu.fetch.Insts                       10437787                       # Number of instructions fetch has processed
system.cpu.fetch.MiscStallCycles                    5                       # Number of cycles fetch has spent waiting on interrupts, or bad addresses, or out of MSHRs
system.cpu.fetch.SquashCycles                   81796                       # Number of cycles fetch has spent squashing
system.cpu.fetch.branchRate                  0.083764                       # Number of branch fetches per cycle
system.cpu.fetch.icacheStallCycles           18576849                       # Number of cycles fetch is stalled on an Icache miss
system.cpu.fetch.predictedBranches            1166878                       # Number of branches that fetch has predicted taken
system.cpu.fetch.rate                        0.441864                       # Number of inst fetches per cycle
system.cpu.fetch.rateDist::samples           20985191                       # Number of instructions fetched each cycle (Total)
system.cpu.fetch.rateDist::mean              0.554543                       # Number of instructions fetched each cycle (Total)
system.cpu.fetch.rateDist::stdev             1.784510                       # Number of instructions fetched each cycle (Total)
system.cpu.fetch.rateDist::underflows               0      0.00%      0.00% # Number of instructions fetched each cycle (Total)
system.cpu.fetch.rateDist::0                 18620490     88.73%     88.73% # Number of instructions fetched each cycle (Total)
system.cpu.fetch.rateDist::1                   381845      1.82%     90.55% # Number of instructions fetched each cycle (Total)
system.cpu.fetch.rateDist::2                   156747      0.75%     91.30% # Number of instructions fetched each cycle (Total)
system.cpu.fetch.rateDist::3                   189712      0.90%     92.20% # Number of instructions fetched each cycle (Total)
system.cpu.fetch.rateDist::4                   447176      2.13%     94.33% # Number of instructions fetched each cycle (Total)
system.cpu.fetch.rateDist::5                   122313      0.58%     94.92% # Number of instructions fetched each cycle (Total)
system.cpu.fetch.rateDist::6                   255705      1.22%     96.13% # Number of instructions fetched each cycle (Total)
system.cpu.fetch.rateDist::7                    51405      0.24%     96.38% # Number of instructions fetched each cycle (Total)
system.cpu.fetch.rateDist::8                   759798      3.62%    100.00% # Number of instructions fetched each cycle (Total)
system.cpu.fetch.rateDist::overflows                0      0.00%    100.00% # Number of instructions fetched each cycle (Total)
system.cpu.fetch.rateDist::min_value                0                       # Number of instructions fetched each cycle (Total)
system.cpu.fetch.rateDist::max_value                8                       # Number of instructions fetched each cycle (Total)
system.cpu.fetch.rateDist::total             20985191                       # Number of instructions fetched each cycle (Total)
system.cpu.idleCycles                         2636969                       # Total number of cycles that the CPU has spent unscheduled due to idling
system.cpu.iew.branchMispredicts                37804                       # Number of branch mispredicts detected at execute
system.cpu.iew.exec_branches                  1885369                       # Number of branches executed
system.cpu.iew.exec_nop                          8584                       # number of nop insts executed
system.cpu.iew.exec_rate                     0.478066                       # Inst execution rate
system.cpu.iew.exec_refs                      3222778                       # number of memory reference insts executed
system.cpu.iew.exec_stores                    1522414                       # Number of stores executed
system.cpu.iew.exec_swp                             0                       # number of swp insts executed
system.cpu.iew.iewBlockCycles                   16678                       # Number of cycles IEW is blocking
system.cpu.iew.iewDispLoadInsts               1661253                       # Number of dispatched load instructions
system.cpu.iew.iewDispNonSpecInsts              11446                       # Number of dispatched non-speculative instructions
system.cpu.iew.iewDispSquashedInsts             46155                       # Number of squashed instructions skipped by dispatch
system.cpu.iew.iewDispStoreInsts              1541171                       # Number of dispatched store instructions
system.cpu.iew.iewDispatchedInsts            11376309                       # Number of instructions dispatched to IQ
system.cpu.iew.iewExecLoadInsts               1700364                       # Number of load instructions executed
system.cpu.iew.iewExecSquashedInsts             24994                       # Number of squashed instructions skipped in execute
system.cpu.iew.iewExecutedInsts              11292940                       # Number of executed instructions
system.cpu.iew.iewIQFullEvents                      6                       # Number of times the IQ has become full, causing a stall
system.cpu.iew.iewIdleCycles                        0                       # Number of cycles IEW is idle
system.cpu.iew.iewLSQFullEvents                   132                       # Number of times the LSQ has become full, causing a stall
system.cpu.iew.iewSquashCycles                  37793                       # Number of cycles IEW is squashing
system.cpu.iew.iewUnblockCycles                   140                       # Number of cycles IEW is unblocking
system.cpu.iew.lsq.thread0.blockedLoads             0                       # Number of blocked loads due to partial load-store forwarding
system.cpu.iew.lsq.thread0.cacheBlocked            57                       # Number of times an access to memory failed due to the cache being blocked
system.cpu.iew.lsq.thread0.forwLoads             5744                       # Number of loads that had data forwarded from stores
system.cpu.iew.lsq.thread0.ignoredResponses            3                       # Number of memory responses ignored because the instruction is squashed
system.cpu.iew.lsq.thread0.invAddrLoads             0                       # Number of loads ignored due to an invalid address
system.cpu.iew.lsq.thread0.invAddrSwpfs             0                       # Number of software prefetches ignored due to an invalid address
system.cpu.iew.lsq.thread0.memOrderViolation           39                       # Number of memory ordering violations
system.cpu.iew.lsq.thread0.rescheduledLoads        51420                       # Number of loads that were rescheduled
system.cpu.iew.lsq.thread0.squashedLoads        37959                       # Number of loads squashed
system.cpu.iew.lsq.thread0.squashedStores        19404                       # Number of stores squashed
system.cpu.iew.memOrderViolationEvents             39                       # Number of memory order violations
system.cpu.iew.predictedNotTakenIncorrect        27884                       # Number of branches that were predicted not taken incorrectly
system.cpu.iew.predictedTakenIncorrect           9920                       # Number of branches that were predicted taken incorrectly
system.cpu.iew.wb_consumers                   9691647                       # num instructions consuming a value
system.cpu.iew.wb_count                      11231615                       # cumulative count of insts written-back
system.cpu.iew.wb_fanout                     0.571824                       # average fanout of values written-back
system.cpu.iew.wb_producers                   5541918                       # num instructions producing a value
system.cpu.iew.wb_rate                       0.475469                       # insts written-back per cycle
system.cpu.iew.wb_sent                       11231908                       # cumulative count of insts sent to commit
system.cpu.int_regfile_reads                 13701685                       # number of integer regfile reads
system.cpu.int_regfile_writes                 8072636                       # number of integer regfile writes
system.cpu.ipc                               0.423331                       # IPC: Instructions Per Cycle
system.cpu.ipc_total                         0.423331                       # IPC: Total IPC of All Threads
system.cpu.iq.FU_type_0::No_OpClass             11429      0.10%      0.10% # Type of FU issued
system.cpu.iq.FU_type_0::IntAlu               7656150     67.65%     67.75% # Type of FU issued
system.cpu.iq.FU_type_0::IntMult               227263      2.01%     69.76% # Type of FU issued
system.cpu.iq.FU_type_0::IntDiv                     4      0.00%     69.76% # Type of FU issued
system.cpu.iq.FU_type_0::FloatAdd                   0      0.00%     69.76% # Type of FU issued
system.cpu.iq.FU_type_0::FloatCmp               11420      0.10%     69.86% # Type of FU issued
system.cpu.iq.FU_type_0::FloatCvt                5710      0.05%     69.91% # Type of FU issued
system.cpu.iq.FU_type_0::FloatMult                  0      0.00%     69.91% # Type of FU issued
system.cpu.iq.FU_type_0::FloatMultAcc               0      0.00%     69.91% # Type of FU issued
system.cpu.iq.FU_type_0::FloatDiv                5710      0.05%     69.96% # Type of FU issued
system.cpu.iq.FU_type_0::FloatMisc              22841      0.20%     70.16% # Type of FU issued
system.cpu.iq.FU_type_0::FloatSqrt                  0      0.00%     70.16% # Type of FU issued
system.cpu.iq.FU_type_0::SimdAdd                22874      0.20%     70.36% # Type of FU issued
system.cpu.iq.FU_type_0::SimdAddAcc                 0      0.00%     70.36% # Type of FU issued
system.cpu.iq.FU_type_0::SimdAlu                45713      0.40%     70.76% # Type of FU issued
system.cpu.iq.FU_type_0::SimdCmp                45716      0.40%     71.17% # Type of FU issued
system.cpu.iq.FU_type_0::SimdCvt                    0      0.00%     71.17% # Type of FU issued
system.cpu.iq.FU_type_0::SimdMisc               34288      0.30%     71.47% # Type of FU issued
system.cpu.iq.FU_type_0::SimdMult                   0      0.00%     71.47% # Type of FU issued
system.cpu.iq.FU_type_0::SimdMultAcc                0      0.00%     71.47% # Type of FU issued
system.cpu.iq.FU_type_0::SimdShift                  0      0.00%     71.47% # Type of FU issued
system.cpu.iq.FU_type_0::SimdShiftAcc               0      0.00%     71.47% # Type of FU issued
system.cpu.iq.FU_type_0::SimdDiv                    0      0.00%     71.47% # Type of FU issued
system.cpu.iq.FU_type_0::SimdSqrt                   0      0.00%     71.47% # Type of FU issued
system.cpu.iq.FU_type_0::SimdFloatAdd               0      0.00%     71.47% # Type of FU issued
system.cpu.iq.FU_type_0::SimdFloatAlu               0      0.00%     71.47% # Type of FU issued
system.cpu.iq.FU_type_0::SimdFloatCmp               0      0.00%     71.47% # Type of FU issued
system.cpu.iq.FU_type_0::SimdFloatCvt               0      0.00%     71.47% # Type of FU issued
system.cpu.iq.FU_type_0::SimdFloatDiv               0      0.00%     71.47% # Type of FU issued
system.cpu.iq.FU_type_0::SimdFloatMisc              0      0.00%     71.47% # Type of FU issued
system.cpu.iq.FU_type_0::SimdFloatMult              0      0.00%     71.47% # Type of FU issued
system.cpu.iq.FU_type_0::SimdFloatMultAcc            0      0.00%     71.47% # Type of FU issued
system.cpu.iq.FU_type_0::SimdFloatSqrt              0      0.00%     71.47% # Type of FU issued
system.cpu.iq.FU_type_0::SimdReduceAdd              0      0.00%     71.47% # Type of FU issued
system.cpu.iq.FU_type_0::SimdReduceAlu              0      0.00%     71.47% # Type of FU issued
system.cpu.iq.FU_type_0::SimdReduceCmp              0      0.00%     71.47% # Type of FU issued
system.cpu.iq.FU_type_0::SimdFloatReduceAdd            0      0.00%     71.47% # Type of FU issued
system.cpu.iq.FU_type_0::SimdFloatReduceCmp            0      0.00%     71.47% # Type of FU issued
system.cpu.iq.FU_type_0::SimdAes                    0      0.00%     71.47% # Type of FU issued
system.cpu.iq.FU_type_0::SimdAesMix                 0      0.00%     71.47% # Type of FU issued
system.cpu.iq.FU_type_0::SimdSha1Hash               0      0.00%     71.47% # Type of FU issued
system.cpu.iq.FU_type_0::SimdSha1Hash2              0      0.00%     71.47% # Type of FU issued
system.cpu.iq.FU_type_0::SimdSha256Hash             0      0.00%     71.47% # Type of FU issued
system.cpu.iq.FU_type_0::SimdSha256Hash2            0      0.00%     71.47% # Type of FU issued
system.cpu.iq.FU_type_0::SimdShaSigma2              0      0.00%     71.47% # Type of FU issued
system.cpu.iq.FU_type_0::SimdShaSigma3              0      0.00%     71.47% # Type of FU issued
system.cpu.iq.FU_type_0::SimdPredAlu                0      0.00%     71.47% # Type of FU issued
system.cpu.iq.FU_type_0::MemRead              1700573     15.03%     86.50% # Type of FU issued
system.cpu.iq.FU_type_0::MemWrite             1528244     13.50%    100.00% # Type of FU issued
system.cpu.iq.FU_type_0::FloatMemRead               0      0.00%    100.00% # Type of FU issued
system.cpu.iq.FU_type_0::FloatMemWrite              0      0.00%    100.00% # Type of FU issued
system.cpu.iq.FU_type_0::IprAccess                  0      0.00%    100.00% # Type of FU issued
system.cpu.iq.FU_type_0::InstPrefetch               0      0.00%    100.00% # Type of FU issued
system.cpu.iq.FU_type_0::total               11317935                       # Type of FU issued
system.cpu.iq.fp_alu_accesses                       0                       # Number of floating point alu accesses
system.cpu.iq.fp_inst_queue_reads                   0                       # Number of floating instruction queue reads
system.cpu.iq.fp_inst_queue_wakeup_accesses            0                       # Number of floating instruction queue wakeup accesses
system.cpu.iq.fp_inst_queue_writes                  0                       # Number of floating instruction queue writes
system.cpu.iq.fu_busy_cnt                      127664                       # FU busy when requested
system.cpu.iq.fu_busy_rate                   0.011280                       # FU busy rate (busy events/executed inst)
system.cpu.iq.fu_full::No_OpClass                   0      0.00%      0.00% # attempts to use FU when none available
system.cpu.iq.fu_full::IntAlu                     775      0.61%      0.61% # attempts to use FU when none available
system.cpu.iq.fu_full::IntMult                  51099     40.03%     40.63% # attempts to use FU when none available
system.cpu.iq.fu_full::IntDiv                       0      0.00%     40.63% # attempts to use FU when none available
system.cpu.iq.fu_full::FloatAdd                     0      0.00%     40.63% # attempts to use FU when none available
system.cpu.iq.fu_full::FloatCmp                     0      0.00%     40.63% # attempts to use FU when none available
system.cpu.iq.fu_full::FloatCvt                     0      0.00%     40.63% # attempts to use FU when none available
system.cpu.iq.fu_full::FloatMult                    0      0.00%     40.63% # attempts to use FU when none available
system.cpu.iq.fu_full::FloatMultAcc                 0      0.00%     40.63% # attempts to use FU when none available
system.cpu.iq.fu_full::FloatDiv                     0      0.00%     40.63% # attempts to use FU when none available
system.cpu.iq.fu_full::FloatMisc                    0      0.00%     40.63% # attempts to use FU when none available
system.cpu.iq.fu_full::FloatSqrt                    0      0.00%     40.63% # attempts to use FU when none available
system.cpu.iq.fu_full::SimdAdd                      0      0.00%     40.63% # attempts to use FU when none available
system.cpu.iq.fu_full::SimdAddAcc                   0      0.00%     40.63% # attempts to use FU when none available
system.cpu.iq.fu_full::SimdAlu                      1      0.00%     40.63% # attempts to use FU when none available
system.cpu.iq.fu_full::SimdCmp                      2      0.00%     40.64% # attempts to use FU when none available
system.cpu.iq.fu_full::SimdCvt                      0      0.00%     40.64% # attempts to use FU when none available
system.cpu.iq.fu_full::SimdMisc                     0      0.00%     40.64% # attempts to use FU when none available
system.cpu.iq.fu_full::SimdMult                     0      0.00%     40.64% # attempts to use FU when none available
system.cpu.iq.fu_full::SimdMultAcc                  0      0.00%     40.64% # attempts to use FU when none available
system.cpu.iq.fu_full::SimdShift                    0      0.00%     40.64% # attempts to use FU when none available
system.cpu.iq.fu_full::SimdShiftAcc                 0      0.00%     40.64% # attempts to use FU when none available
system.cpu.iq.fu_full::SimdDiv                      0      0.00%     40.64% # attempts to use FU when none available
system.cpu.iq.fu_full::SimdSqrt                     0      0.00%     40.64% # attempts to use FU when none available
system.cpu.iq.fu_full::SimdFloatAdd                 0      0.00%     40.64% # attempts to use FU when none available
system.cpu.iq.fu_full::SimdFloatAlu                 0      0.00%     40.64% # attempts to use FU when none available
system.cpu.iq.fu_full::SimdFloatCmp                 0      0.00%     40.64% # attempts to use FU when none available
system.cpu.iq.fu_full::SimdFloatCvt                 0      0.00%     40.64% # attempts to use FU when none available
system.cpu.iq.fu_full::SimdFloatDiv                 0      0.00%     40.64% # attempts to use FU when none available
system.cpu.iq.fu_full::SimdFloatMisc                0      0.00%     40.64% # attempts to use FU when none available
system.cpu.iq.fu_full::SimdFloatMult                0      0.00%     40.64% # attempts to use FU when none available
system.cpu.iq.fu_full::SimdFloatMultAcc             0      0.00%     40.64% # attempts to use FU when none available
system.cpu.iq.fu_full::SimdFloatSqrt                0      0.00%     40.64% # attempts to use FU when none available
system.cpu.iq.fu_full::SimdReduceAdd                0      0.00%     40.64% # attempts to use FU when none available
system.cpu.iq.fu_full::SimdReduceAlu                0      0.00%     40.64% # attempts to use FU when none available
system.cpu.iq.fu_full::SimdReduceCmp                0      0.00%     40.64% # attempts to use FU when none available
system.cpu.iq.fu_full::SimdFloatReduceAdd            0      0.00%     40.64% # attempts to use FU when none available
system.cpu.iq.fu_full::SimdFloatReduceCmp            0      0.00%     40.64% # attempts to use FU when none available
system.cpu.iq.fu_full::SimdAes                      0      0.00%     40.64% # attempts to use FU when none available
system.cpu.iq.fu_full::SimdAesMix                   0      0.00%     40.64% # attempts to use FU when none available
system.cpu.iq.fu_full::SimdSha1Hash                 0      0.00%     40.64% # attempts to use FU when none available
system.cpu.iq.fu_full::SimdSha1Hash2                0      0.00%     40.64% # attempts to use FU when none available
system.cpu.iq.fu_full::SimdSha256Hash               0      0.00%     40.64% # attempts to use FU when none available
system.cpu.iq.fu_full::SimdSha256Hash2              0      0.00%     40.64% # attempts to use FU when none available
system.cpu.iq.fu_full::SimdShaSigma2                0      0.00%     40.64% # attempts to use FU when none available
system.cpu.iq.fu_full::SimdShaSigma3                0      0.00%     40.64% # attempts to use FU when none available
system.cpu.iq.fu_full::SimdPredAlu                  0      0.00%     40.64% # attempts to use FU when none available
system.cpu.iq.fu_full::MemRead                  17903     14.02%     54.66% # attempts to use FU when none available
system.cpu.iq.fu_full::MemWrite                 57884     45.34%    100.00% # attempts to use FU when none available
system.cpu.iq.fu_full::FloatMemRead                 0      0.00%    100.00% # attempts to use FU when none available
system.cpu.iq.fu_full::FloatMemWrite                0      0.00%    100.00% # attempts to use FU when none available
system.cpu.iq.fu_full::IprAccess                    0      0.00%    100.00% # attempts to use FU when none available
system.cpu.iq.fu_full::InstPrefetch                 0      0.00%    100.00% # attempts to use FU when none available
system.cpu.iq.int_alu_accesses               11085578                       # Number of integer alu accesses
system.cpu.iq.int_inst_queue_reads           43051601                       # Number of integer instruction queue reads
system.cpu.iq.int_inst_queue_wakeup_accesses     10894481                       # Number of integer instruction queue wakeup accesses
system.cpu.iq.int_inst_queue_writes          11265729                       # Number of integer instruction queue writes
system.cpu.iq.iqInstsAdded                   11356279                       # Number of instructions added to the IQ (excludes non-spec)
system.cpu.iq.iqInstsIssued                  11317935                       # Number of instructions issued
system.cpu.iq.iqNonSpecInstsAdded               11446                       # Number of non-speculative instructions added to the IQ
system.cpu.iq.iqSquashedInstsExamined          235333                       # Number of squashed instructions iterated over during squash; mainly for profiling
system.cpu.iq.iqSquashedInstsIssued                75                       # Number of squashed instructions issued
system.cpu.iq.iqSquashedNonSpecRemoved              5                       # Number of squashed non-spec instructions that were removed
system.cpu.iq.iqSquashedOperandsExamined       244977                       # Number of squashed operands that are examined and possibly removed from graph
system.cpu.iq.issued_per_cycle::samples      20985191                       # Number of insts issued each cycle
system.cpu.iq.issued_per_cycle::mean         0.539330                       # Number of insts issued each cycle
system.cpu.iq.issued_per_cycle::stdev        1.237988                       # Number of insts issued each cycle
system.cpu.iq.issued_per_cycle::underflows            0      0.00%      0.00% # Number of insts issued each cycle
system.cpu.iq.issued_per_cycle::0            16274983     77.55%     77.55% # Number of insts issued each cycle
system.cpu.iq.issued_per_cycle::1             1800772      8.58%     86.14% # Number of insts issued each cycle
system.cpu.iq.issued_per_cycle::2             1061251      5.06%     91.19% # Number of insts issued each cycle
system.cpu.iq.issued_per_cycle::3              833418      3.97%     95.16% # Number of insts issued each cycle
system.cpu.iq.issued_per_cycle::4              535206      2.55%     97.71% # Number of insts issued each cycle
system.cpu.iq.issued_per_cycle::5              230366      1.10%     98.81% # Number of insts issued each cycle
system.cpu.iq.issued_per_cycle::6              162968      0.78%     99.59% # Number of insts issued each cycle
system.cpu.iq.issued_per_cycle::7               65871      0.31%     99.90% # Number of insts issued each cycle
system.cpu.iq.issued_per_cycle::8               20356      0.10%    100.00% # Number of insts issued each cycle
system.cpu.iq.issued_per_cycle::overflows            0      0.00%    100.00% # Number of insts issued each cycle
system.cpu.iq.issued_per_cycle::min_value            0                       # Number of insts issued each cycle
system.cpu.iq.issued_per_cycle::max_value            8                       # Number of insts issued each cycle
system.cpu.iq.issued_per_cycle::total        20985191                       # Number of insts issued each cycle
system.cpu.iq.rate                           0.479124                       # Inst issue rate
system.cpu.iq.vec_alu_accesses                 348592                       # Number of vector alu accesses
system.cpu.iq.vec_inst_queue_reads             697198                       # Number of vector instruction queue reads
system.cpu.iq.vec_inst_queue_wakeup_accesses       337134                       # Number of vector instruction queue wakeup accesses
system.cpu.iq.vec_inst_queue_writes            337362                       # Number of vector instruction queue writes
system.cpu.itb.accesses                             0                       # DTB accesses
system.cpu.itb.align_faults                         0                       # Number of TLB faults due to alignment restrictions
system.cpu.itb.domain_faults                        0                       # Number of TLB faults due to domain restrictions
system.cpu.itb.flush_entries                        0                       # Number of entries that have been flushed from TLB
system.cpu.itb.flush_tlb                            0                       # Number of times complete TLB was flushed
system.cpu.itb.flush_tlb_asid                       0                       # Number of times TLB was flushed by ASID
system.cpu.itb.flush_tlb_mva                        0                       # Number of times TLB was flushed by MVA
system.cpu.itb.flush_tlb_mva_asid                   0                       # Number of times TLB was flushed by MVA & ASID
system.cpu.itb.hits                                 0                       # DTB hits
system.cpu.itb.inst_accesses                        0                       # ITB inst accesses
system.cpu.itb.inst_hits                            0                       # ITB inst hits
system.cpu.itb.inst_misses                          0                       # ITB inst misses
system.cpu.itb.misses                               0                       # DTB misses
system.cpu.itb.perms_faults                         0                       # Number of TLB faults due to permissions restrictions
system.cpu.itb.prefetch_faults                      0                       # Number of TLB faults due to prefetch
system.cpu.itb.read_accesses                        0                       # DTB read accesses
system.cpu.itb.read_hits                            0                       # DTB read hits
system.cpu.itb.read_misses                          0                       # DTB read misses
system.cpu.itb.stage2_mmu.stage2_tlb.accesses            0                       # DTB accesses
system.cpu.itb.stage2_mmu.stage2_tlb.align_faults            0                       # Number of TLB faults due to alignment restrictions
system.cpu.itb.stage2_mmu.stage2_tlb.domain_faults            0                       # Number of TLB faults due to domain restrictions
system.cpu.itb.stage2_mmu.stage2_tlb.flush_entries            0                       # Number of entries that have been flushed from TLB
system.cpu.itb.stage2_mmu.stage2_tlb.flush_tlb            0                       # Number of times complete TLB was flushed
system.cpu.itb.stage2_mmu.stage2_tlb.flush_tlb_asid            0                       # Number of times TLB was flushed by ASID
system.cpu.itb.stage2_mmu.stage2_tlb.flush_tlb_mva            0                       # Number of times TLB was flushed by MVA
system.cpu.itb.stage2_mmu.stage2_tlb.flush_tlb_mva_asid            0                       # Number of times TLB was flushed by MVA & ASID
system.cpu.itb.stage2_mmu.stage2_tlb.hits            0                       # DTB hits
system.cpu.itb.stage2_mmu.stage2_tlb.inst_accesses            0                       # ITB inst accesses
system.cpu.itb.stage2_mmu.stage2_tlb.inst_hits            0                       # ITB inst hits
system.cpu.itb.stage2_mmu.stage2_tlb.inst_misses            0                       # ITB inst misses
system.cpu.itb.stage2_mmu.stage2_tlb.misses            0                       # DTB misses
system.cpu.itb.stage2_mmu.stage2_tlb.perms_faults            0                       # Number of TLB faults due to permissions restrictions
system.cpu.itb.stage2_mmu.stage2_tlb.prefetch_faults            0                       # Number of TLB faults due to prefetch
system.cpu.itb.stage2_mmu.stage2_tlb.read_accesses            0                       # DTB read accesses
system.cpu.itb.stage2_mmu.stage2_tlb.read_hits            0                       # DTB read hits
system.cpu.itb.stage2_mmu.stage2_tlb.read_misses            0                       # DTB read misses
system.cpu.itb.stage2_mmu.stage2_tlb.walker.walkRequestOrigin_Requested::Data            0                       # Table walker requests started/completed, data/inst
system.cpu.itb.stage2_mmu.stage2_tlb.walker.walkRequestOrigin_Requested::Inst            0                       # Table walker requests started/completed, data/inst
system.cpu.itb.stage2_mmu.stage2_tlb.walker.walkRequestOrigin_Requested::total            0                       # Table walker requests started/completed, data/inst
system.cpu.itb.stage2_mmu.stage2_tlb.walker.walkRequestOrigin_Completed::Data            0                       # Table walker requests started/completed, data/inst
system.cpu.itb.stage2_mmu.stage2_tlb.walker.walkRequestOrigin_Completed::Inst            0                       # Table walker requests started/completed, data/inst
system.cpu.itb.stage2_mmu.stage2_tlb.walker.walkRequestOrigin_Completed::total            0                       # Table walker requests started/completed, data/inst
system.cpu.itb.stage2_mmu.stage2_tlb.walker.walkRequestOrigin::total            0                       # Table walker requests started/completed, data/inst
system.cpu.itb.stage2_mmu.stage2_tlb.walker.walks            0                       # Table walker walks requested
system.cpu.itb.stage2_mmu.stage2_tlb.write_accesses            0                       # DTB write accesses
system.cpu.itb.stage2_mmu.stage2_tlb.write_hits            0                       # DTB write hits
system.cpu.itb.stage2_mmu.stage2_tlb.write_misses            0                       # DTB write misses
system.cpu.itb.walker.walkRequestOrigin_Requested::Data            0                       # Table walker requests started/completed, data/inst
system.cpu.itb.walker.walkRequestOrigin_Requested::Inst            0                       # Table walker requests started/completed, data/inst
system.cpu.itb.walker.walkRequestOrigin_Requested::total            0                       # Table walker requests started/completed, data/inst
system.cpu.itb.walker.walkRequestOrigin_Completed::Data            0                       # Table walker requests started/completed, data/inst
system.cpu.itb.walker.walkRequestOrigin_Completed::Inst            0                       # Table walker requests started/completed, data/inst
system.cpu.itb.walker.walkRequestOrigin_Completed::total            0                       # Table walker requests started/completed, data/inst
system.cpu.itb.walker.walkRequestOrigin::total            0                       # Table walker requests started/completed, data/inst
system.cpu.itb.walker.walks                         0                       # Table walker walks requested
system.cpu.itb.write_accesses                       0                       # DTB write accesses
system.cpu.itb.write_hits                           0                       # DTB write hits
system.cpu.itb.write_misses                         0                       # DTB write misses
system.cpu.memDep0.conflictingLoads             57152                       # Number of conflicting loads.
system.cpu.memDep0.conflictingStores            52082                       # Number of conflicting stores.
system.cpu.memDep0.insertedLoads              1661253                       # Number of loads inserted to the mem dependence unit.
system.cpu.memDep0.insertedStores             1541171                       # Number of stores inserted to the mem dependence unit.
system.cpu.misc_regfile_reads                 8075652                       # number of misc regfile reads
system.cpu.misc_regfile_writes                  74259                       # number of misc regfile writes
system.cpu.numCycles                         23622160                       # number of cpu cycles simulated
system.cpu.numWorkItemsCompleted                    0                       # number of work items this cpu completed
system.cpu.numWorkItemsStarted                      0                       # number of work items this cpu started
system.cpu.rename.BlockCycles                   16853                       # Number of cycles rename is blocking
system.cpu.rename.CommittedMaps              11692988                       # Number of HB maps that are committed
system.cpu.rename.IQFullEvents                   3137                       # Number of times rename has blocked due to IQ full
system.cpu.rename.IdleCycles                 18225060                       # Number of cycles rename is idle
system.cpu.rename.ROBFullEvents                     2                       # Number of times rename has blocked due to ROB full
system.cpu.rename.RenameLookups              18792017                       # Number of register rename lookups that rename has made
system.cpu.rename.RenamedInsts               11489000                       # Number of instructions processed by rename
system.cpu.rename.RenamedOperands            12141981                       # Number of destination operands rename has renamed
system.cpu.rename.RunCycles                   2320076                       # Number of cycles rename is running
system.cpu.rename.SQFullEvents                    859                       # Number of times rename has blocked due to SQ full
system.cpu.rename.SquashCycles                  37793                       # Number of cycles rename is squashing
system.cpu.rename.UnblockCycles                 61172                       # Number of cycles rename is unblocking
system.cpu.rename.UndoneMaps                   448981                       # Number of HB maps that are undone due to squashing
system.cpu.rename.int_rename_lookups         13917801                       # Number of integer rename lookups
system.cpu.rename.serializeStallCycles         324237                       # count of cycles rename stalled for serializing inst
system.cpu.rename.serializingInsts              40165                       # count of serializing insts renamed
system.cpu.rename.skidInsts                    318951                       # count of insts added to the skid buffer
system.cpu.rename.tempSerializingInsts          11445                       # count of temporary serializing insts renamed
system.cpu.rename.vec_rename_lookups           394432                       # Number of vector rename lookups
system.cpu.rob.rob_reads                     32002983                       # The number of ROB reads
system.cpu.rob.rob_writes                    22806647                       # The number of ROB writes
system.cpu.timesIdled                          669217                       # Number of times that the entire CPU went into an idle state and unscheduled itself
system.cpu.vec_regfile_reads                   394307                       # number of vector regfile reads
system.cpu.vec_regfile_writes                  222843                       # number of vector regfile writes
system.cpu.workload.numSyscalls                    13                       # Number of system calls
system.membus.snoop_filter.hit_multi_requests            0                       # Number of requests hitting in the snoop filter with multiple (>1) holders of the requested data.
system.membus.snoop_filter.hit_multi_snoops            0                       # Number of snoops hitting in the snoop filter with multiple (>1) holders of the requested data.
system.membus.snoop_filter.hit_single_requests            0                       # Number of requests hitting in the snoop filter with a single holder of the requested data.
system.membus.snoop_filter.hit_single_snoops            0                       # Number of snoops hitting in the snoop filter with a single holder of the requested data.
system.membus.snoop_filter.tot_requests           866                       # Total number of requests made to the snoop filter.
system.membus.snoop_filter.tot_snoops               0                       # Total number of snoops made to the snoop filter.
system.tol2bus.snoop_filter.hit_multi_requests            1                       # Number of requests hitting in the snoop filter with multiple (>1) holders of the requested data.
system.tol2bus.snoop_filter.hit_multi_snoops            0                       # Number of snoops hitting in the snoop filter with multiple (>1) holders of the requested data.
system.tol2bus.snoop_filter.hit_single_requests       799499                       # Number of requests hitting in the snoop filter with a single holder of the requested data.
system.tol2bus.snoop_filter.hit_single_snoops            0                       # Number of snoops hitting in the snoop filter with a single holder of the requested data.
system.tol2bus.snoop_filter.tot_requests      1599361                       # Total number of requests made to the snoop filter.
system.tol2bus.snoop_filter.tot_snoops              0                       # Total number of snoops made to the snoop filter.
system.membus.trans_dist::ReadResp                626                       # Transaction distribution
system.membus.trans_dist::ReadExReq               233                       # Transaction distribution
system.membus.trans_dist::ReadExResp              233                       # Transaction distribution
system.membus.trans_dist::ReadSharedReq           626                       # Transaction distribution
system.membus.trans_dist::InvalidateReq             7                       # Transaction distribution
system.membus.pkt_count_system.l2.mem_side::system.mem_ctrls.port         1725                       # Packet count per connected master and slave (bytes)
system.membus.pkt_count::total                   1725                       # Packet count per connected master and slave (bytes)
system.membus.pkt_size_system.l2.mem_side::system.mem_ctrls.port        54976                       # Cumulative packet size per connected master and slave (bytes)
system.membus.pkt_size::total                   54976                       # Cumulative packet size per connected master and slave (bytes)
system.membus.snoops                                0                       # Total snoops (count)
system.membus.snoopTraffic                          0                       # Total snoop traffic (bytes)
system.membus.snoop_fanout::samples               866                       # Request fanout histogram
system.membus.snoop_fanout::mean                    0                       # Request fanout histogram
system.membus.snoop_fanout::stdev                   0                       # Request fanout histogram
system.membus.snoop_fanout::underflows              0      0.00%      0.00% # Request fanout histogram
system.membus.snoop_fanout::0                     866    100.00%    100.00% # Request fanout histogram
system.membus.snoop_fanout::1                       0      0.00%    100.00% # Request fanout histogram
system.membus.snoop_fanout::overflows               0      0.00%    100.00% # Request fanout histogram
system.membus.snoop_fanout::min_value               0                       # Request fanout histogram
system.membus.snoop_fanout::max_value               0                       # Request fanout histogram
system.membus.snoop_fanout::total                 866                       # Request fanout histogram
system.membus.reqLayer0.occupancy             1086000                       # Layer occupancy (ticks)
system.membus.reqLayer0.utilization               0.0                       # Layer utilization (%)
system.membus.respLayer1.occupancy            4579500                       # Layer occupancy (ticks)
system.membus.respLayer1.utilization              0.0                       # Layer utilization (%)
system.membus.power_state.pwrStateResidencyTicks::UNDEFINED  11811079500                       # Cumulative time (in ticks) in various power states
system.tol2bus.trans_dist::ReadResp            799621                       # Transaction distribution
system.tol2bus.trans_dist::WritebackClean       799499                       # Transaction distribution
system.tol2bus.trans_dist::ReadExReq              233                       # Transaction distribution
system.tol2bus.trans_dist::ReadExResp             233                       # Transaction distribution
system.tol2bus.trans_dist::ReadCleanReq        799516                       # Transaction distribution
system.tol2bus.trans_dist::ReadSharedReq          106                       # Transaction distribution
system.tol2bus.trans_dist::InvalidateReq            7                       # Transaction distribution
system.tol2bus.trans_dist::InvalidateResp            7                       # Transaction distribution
system.tol2bus.pkt_count_system.cpu.icache.mem_side::system.l2.cpu_side      2398530                       # Packet count per connected master and slave (bytes)
system.tol2bus.pkt_count_system.cpu.dcache.mem_side::system.l2.cpu_side          692                       # Packet count per connected master and slave (bytes)
system.tol2bus.pkt_count::total               2399222                       # Packet count per connected master and slave (bytes)
system.tol2bus.pkt_size_system.cpu.icache.mem_side::system.l2.cpu_side    102336896                       # Cumulative packet size per connected master and slave (bytes)
system.tol2bus.pkt_size_system.cpu.dcache.mem_side::system.l2.cpu_side        21696                       # Cumulative packet size per connected master and slave (bytes)
system.tol2bus.pkt_size::total              102358592                       # Cumulative packet size per connected master and slave (bytes)
system.tol2bus.snoops                               0                       # Total snoops (count)
system.tol2bus.snoopTraffic                         0                       # Total snoop traffic (bytes)
system.tol2bus.snoop_fanout::samples           799862                       # Request fanout histogram
system.tol2bus.snoop_fanout::mean            0.000001                       # Request fanout histogram
system.tol2bus.snoop_fanout::stdev           0.001118                       # Request fanout histogram
system.tol2bus.snoop_fanout::underflows             0      0.00%      0.00% # Request fanout histogram
system.tol2bus.snoop_fanout::0                 799861    100.00%    100.00% # Request fanout histogram
system.tol2bus.snoop_fanout::1                      1      0.00%    100.00% # Request fanout histogram
system.tol2bus.snoop_fanout::2                      0      0.00%    100.00% # Request fanout histogram
system.tol2bus.snoop_fanout::overflows              0      0.00%    100.00% # Request fanout histogram
system.tol2bus.snoop_fanout::min_value              0                       # Request fanout histogram
system.tol2bus.snoop_fanout::max_value              1                       # Request fanout histogram
system.tol2bus.snoop_fanout::total             799862                       # Request fanout histogram
system.tol2bus.reqLayer0.occupancy         1599179500                       # Layer occupancy (ticks)
system.tol2bus.reqLayer0.utilization             13.5                       # Layer utilization (%)
system.tol2bus.respLayer1.occupancy            515493                       # Layer occupancy (ticks)
system.tol2bus.respLayer1.utilization             0.0                       # Layer utilization (%)
system.tol2bus.respLayer0.occupancy        1199272500                       # Layer occupancy (ticks)
system.tol2bus.respLayer0.utilization            10.2                       # Layer utilization (%)
system.tol2bus.power_state.pwrStateResidencyTicks::UNDEFINED  11811079500                       # Cumulative time (in ticks) in various power states
system.voltage_domain.voltage                       1                       # Voltage in Volts
system.clk_domain.clock                          1000                       # Clock period in ticks
system.l2.demand_hits::.cpu.inst               798996                       # number of demand (read+write) hits
system.l2.demand_hits::total                   798996                       # number of demand (read+write) hits
system.l2.overall_hits::.cpu.inst              798996                       # number of overall hits
system.l2.overall_hits::total                  798996                       # number of overall hits
system.l2.demand_misses::.cpu.inst                520                       # number of demand (read+write) misses
system.l2.demand_misses::.cpu.data                339                       # number of demand (read+write) misses
system.l2.demand_misses::total                    859                       # number of demand (read+write) misses
system.l2.overall_misses::.cpu.inst               520                       # number of overall misses
system.l2.overall_misses::.cpu.data               339                       # number of overall misses
system.l2.overall_misses::total                   859                       # number of overall misses
system.l2.demand_miss_latency::.cpu.inst     41036000                       # number of demand (read+write) miss cycles
system.l2.demand_miss_latency::.cpu.data     29830500                       # number of demand (read+write) miss cycles
system.l2.demand_miss_latency::total         70866500                       # number of demand (read+write) miss cycles
system.l2.overall_miss_latency::.cpu.inst     41036000                       # number of overall miss cycles
system.l2.overall_miss_latency::.cpu.data     29830500                       # number of overall miss cycles
system.l2.overall_miss_latency::total        70866500                       # number of overall miss cycles
system.l2.demand_accesses::.cpu.inst           799516                       # number of demand (read+write) accesses
system.l2.demand_accesses::.cpu.data              339                       # number of demand (read+write) accesses
system.l2.demand_accesses::total               799855                       # number of demand (read+write) accesses
system.l2.overall_accesses::.cpu.inst          799516                       # number of overall (read+write) accesses
system.l2.overall_accesses::.cpu.data             339                       # number of overall (read+write) accesses
system.l2.overall_accesses::total              799855                       # number of overall (read+write) accesses
system.l2.demand_miss_rate::.cpu.inst        0.000650                       # miss rate for demand accesses
system.l2.demand_miss_rate::.cpu.data               1                       # miss rate for demand accesses
system.l2.demand_miss_rate::total            0.001074                       # miss rate for demand accesses
system.l2.overall_miss_rate::.cpu.inst       0.000650                       # miss rate for overall accesses
system.l2.overall_miss_rate::.cpu.data              1                       # miss rate for overall accesses
system.l2.overall_miss_rate::total           0.001074                       # miss rate for overall accesses
system.l2.demand_avg_miss_latency::.cpu.inst 78915.384615                       # average overall miss latency
system.l2.demand_avg_miss_latency::.cpu.data 87995.575221                       # average overall miss latency
system.l2.demand_avg_miss_latency::total 82498.835856                       # average overall miss latency
system.l2.overall_avg_miss_latency::.cpu.inst 78915.384615                       # average overall miss latency
system.l2.overall_avg_miss_latency::.cpu.data 87995.575221                       # average overall miss latency
system.l2.overall_avg_miss_latency::total 82498.835856                       # average overall miss latency
system.l2.blocked_cycles::no_mshrs                  0                       # number of cycles access was blocked
system.l2.blocked_cycles::no_targets                0                       # number of cycles access was blocked
system.l2.blocked::no_mshrs                         0                       # number of cycles access was blocked
system.l2.blocked::no_targets                       0                       # number of cycles access was blocked
system.l2.avg_blocked_cycles::no_mshrs            nan                       # average number of cycles each access was blocked
system.l2.avg_blocked_cycles::no_targets          nan                       # average number of cycles each access was blocked
system.l2.demand_mshr_misses::.cpu.inst           520                       # number of demand (read+write) MSHR misses
system.l2.demand_mshr_misses::.cpu.data           339                       # number of demand (read+write) MSHR misses
system.l2.demand_mshr_misses::total               859                       # number of demand (read+write) MSHR misses
system.l2.overall_mshr_misses::.cpu.inst          520                       # number of overall MSHR misses
system.l2.overall_mshr_misses::.cpu.data          339                       # number of overall MSHR misses
system.l2.overall_mshr_misses::total              859                       # number of overall MSHR misses
system.l2.demand_mshr_miss_latency::.cpu.inst     35836000                       # number of demand (read+write) MSHR miss cycles
system.l2.demand_mshr_miss_latency::.cpu.data     26440500                       # number of demand (read+write) MSHR miss cycles
system.l2.demand_mshr_miss_latency::total     62276500                       # number of demand (read+write) MSHR miss cycles
system.l2.overall_mshr_miss_latency::.cpu.inst     35836000                       # number of overall MSHR miss cycles
system.l2.overall_mshr_miss_latency::.cpu.data     26440500                       # number of overall MSHR miss cycles
system.l2.overall_mshr_miss_latency::total     62276500                       # number of overall MSHR miss cycles
system.l2.demand_mshr_miss_rate::.cpu.inst     0.000650                       # mshr miss rate for demand accesses
system.l2.demand_mshr_miss_rate::.cpu.data            1                       # mshr miss rate for demand accesses
system.l2.demand_mshr_miss_rate::total       0.001074                       # mshr miss rate for demand accesses
system.l2.overall_mshr_miss_rate::.cpu.inst     0.000650                       # mshr miss rate for overall accesses
system.l2.overall_mshr_miss_rate::.cpu.data            1                       # mshr miss rate for overall accesses
system.l2.overall_mshr_miss_rate::total      0.001074                       # mshr miss rate for overall accesses
system.l2.demand_avg_mshr_miss_latency::.cpu.inst 68915.384615                       # average overall mshr miss latency
system.l2.demand_avg_mshr_miss_latency::.cpu.data 77995.575221                       # average overall mshr miss latency
system.l2.demand_avg_mshr_miss_latency::total 72498.835856                       # average overall mshr miss latency
system.l2.overall_avg_mshr_miss_latency::.cpu.inst 68915.384615                       # average overall mshr miss latency
system.l2.overall_avg_mshr_miss_latency::.cpu.data 77995.575221                       # average overall mshr miss latency
system.l2.overall_avg_mshr_miss_latency::total 72498.835856                       # average overall mshr miss latency
system.l2.replacements                              0                       # number of replacements
system.l2.WritebackClean_hits::.writebacks       799498                       # number of WritebackClean hits
system.l2.WritebackClean_hits::total           799498                       # number of WritebackClean hits
system.l2.WritebackClean_accesses::.writebacks       799498                       # number of WritebackClean accesses(hits+misses)
system.l2.WritebackClean_accesses::total       799498                       # number of WritebackClean accesses(hits+misses)
system.l2.ReadExReq_misses::.cpu.data             233                       # number of ReadExReq misses
system.l2.ReadExReq_misses::total                 233                       # number of ReadExReq misses
system.l2.ReadExReq_miss_latency::.cpu.data     20944000                       # number of ReadExReq miss cycles
system.l2.ReadExReq_miss_latency::total      20944000                       # number of ReadExReq miss cycles
system.l2.ReadExReq_accesses::.cpu.data           233                       # number of ReadExReq accesses(hits+misses)
system.l2.ReadExReq_accesses::total               233                       # number of ReadExReq accesses(hits+misses)
system.l2.ReadExReq_miss_rate::.cpu.data            1                       # miss rate for ReadExReq accesses
system.l2.ReadExReq_miss_rate::total                1                       # miss rate for ReadExReq accesses
system.l2.ReadExReq_avg_miss_latency::.cpu.data 89888.412017                       # average ReadExReq miss latency
system.l2.ReadExReq_avg_miss_latency::total 89888.412017                       # average ReadExReq miss latency
system.l2.ReadExReq_mshr_misses::.cpu.data          233                       # number of ReadExReq MSHR misses
system.l2.ReadExReq_mshr_misses::total            233                       # number of ReadExReq MSHR misses
system.l2.ReadExReq_mshr_miss_latency::.cpu.data     18614000                       # number of ReadExReq MSHR miss cycles
system.l2.ReadExReq_mshr_miss_latency::total     18614000                       # number of ReadExReq MSHR miss cycles
system.l2.ReadExReq_mshr_miss_rate::.cpu.data            1                       # mshr miss rate for ReadExReq accesses
system.l2.ReadExReq_mshr_miss_rate::total            1                       # mshr miss rate for ReadExReq accesses
system.l2.ReadExReq_avg_mshr_miss_latency::.cpu.data 79888.412017                       # average ReadExReq mshr miss latency
system.l2.ReadExReq_avg_mshr_miss_latency::total 79888.412017                       # average ReadExReq mshr miss latency
system.l2.ReadCleanReq_hits::.cpu.inst         798996                       # number of ReadCleanReq hits
system.l2.ReadCleanReq_hits::total             798996                       # number of ReadCleanReq hits
system.l2.ReadCleanReq_misses::.cpu.inst          520                       # number of ReadCleanReq misses
system.l2.ReadCleanReq_misses::total              520                       # number of ReadCleanReq misses
system.l2.ReadCleanReq_miss_latency::.cpu.inst     41036000                       # number of ReadCleanReq miss cycles
system.l2.ReadCleanReq_miss_latency::total     41036000                       # number of ReadCleanReq miss cycles
system.l2.ReadCleanReq_accesses::.cpu.inst       799516                       # number of ReadCleanReq accesses(hits+misses)
system.l2.ReadCleanReq_accesses::total         799516                       # number of ReadCleanReq accesses(hits+misses)
system.l2.ReadCleanReq_miss_rate::.cpu.inst     0.000650                       # miss rate for ReadCleanReq accesses
system.l2.ReadCleanReq_miss_rate::total      0.000650                       # miss rate for ReadCleanReq accesses
system.l2.ReadCleanReq_avg_miss_latency::.cpu.inst 78915.384615                       # average ReadCleanReq miss latency
system.l2.ReadCleanReq_avg_miss_latency::total 78915.384615                       # average ReadCleanReq miss latency
system.l2.ReadCleanReq_mshr_misses::.cpu.inst          520                       # number of ReadCleanReq MSHR misses
system.l2.ReadCleanReq_mshr_misses::total          520                       # number of ReadCleanReq MSHR misses
system.l2.ReadCleanReq_mshr_miss_latency::.cpu.inst     35836000                       # number of ReadCleanReq MSHR miss cycles
system.l2.ReadCleanReq_mshr_miss_latency::total     35836000                       # number of ReadCleanReq MSHR miss cycles
system.l2.ReadCleanReq_mshr_miss_rate::.cpu.inst     0.000650                       # mshr miss rate for ReadCleanReq accesses
system.l2.ReadCleanReq_mshr_miss_rate::total     0.000650                       # mshr miss rate for ReadCleanReq accesses
system.l2.ReadCleanReq_avg_mshr_miss_latency::.cpu.inst 68915.384615                       # average ReadCleanReq mshr miss latency
system.l2.ReadCleanReq_avg_mshr_miss_latency::total 68915.384615                       # average ReadCleanReq mshr miss latency
system.l2.ReadSharedReq_misses::.cpu.data          106                       # number of ReadSharedReq misses
system.l2.ReadSharedReq_misses::total             106                       # number of ReadSharedReq misses
system.l2.ReadSharedReq_miss_latency::.cpu.data      8886500                       # number of ReadSharedReq miss cycles
system.l2.ReadSharedReq_miss_latency::total      8886500                       # number of ReadSharedReq miss cycles
system.l2.ReadSharedReq_accesses::.cpu.data          106                       # number of ReadSharedReq accesses(hits+misses)
system.l2.ReadSharedReq_accesses::total           106                       # number of ReadSharedReq accesses(hits+misses)
system.l2.ReadSharedReq_miss_rate::.cpu.data            1                       # miss rate for ReadSharedReq accesses
system.l2.ReadSharedReq_miss_rate::total            1                       # miss rate for ReadSharedReq accesses
system.l2.ReadSharedReq_avg_miss_latency::.cpu.data 83834.905660                       # average ReadSharedReq miss latency
system.l2.ReadSharedReq_avg_miss_latency::total 83834.905660                       # average ReadSharedReq miss latency
[...]
system.cpu.dcache.demand_miss_latency::.cpu.data    102128961                       # number of demand (read+write) miss cycles
system.cpu.dcache.demand_miss_latency::total    102128961                       # number of demand (read+write) miss cycles
system.cpu.dcache.overall_miss_latency::.cpu.data    102128961                       # number of overall miss cycles
system.cpu.dcache.overall_miss_latency::total    102128961                       # number of overall miss cycles
system.cpu.dcache.demand_accesses::.cpu.data      3130571                       # number of demand (read+write) accesses
system.cpu.dcache.demand_accesses::total      3130571                       # number of demand (read+write) accesses
system.cpu.dcache.overall_accesses::.cpu.data      3142001                       # number of overall (read+write) accesses
system.cpu.dcache.overall_accesses::total      3142001                       # number of overall (read+write) accesses
system.cpu.dcache.demand_miss_rate::.cpu.data     0.000414                       # miss rate for demand accesses
system.cpu.dcache.demand_miss_rate::total     0.000414                       # miss rate for demand accesses
system.cpu.dcache.overall_miss_rate::.cpu.data     0.000413                       # miss rate for overall accesses
system.cpu.dcache.overall_miss_rate::total     0.000413                       # miss rate for overall accesses
system.cpu.dcache.demand_avg_miss_latency::.cpu.data 78742.452583                       # average overall miss latency
system.cpu.dcache.demand_avg_miss_latency::total 78742.452583                       # average overall miss latency
system.cpu.dcache.overall_avg_miss_latency::.cpu.data 78621.217090                       # average overall miss latency
system.cpu.dcache.overall_avg_miss_latency::total 78621.217090                       # average overall miss latency
system.cpu.dcache.blocked_cycles::no_mshrs         2182                       # number of cycles access was blocked
system.cpu.dcache.blocked_cycles::no_targets            0                       # number of cycles access was blocked
system.cpu.dcache.blocked::no_mshrs                59                       # number of cycles access was blocked
system.cpu.dcache.blocked::no_targets               0                       # number of cycles access was blocked
system.cpu.dcache.avg_blocked_cycles::no_mshrs    36.983051                       # average number of cycles each access was blocked
system.cpu.dcache.avg_blocked_cycles::no_targets          nan                       # average number of cycles each access was blocked
system.cpu.dcache.demand_mshr_hits::.cpu.data          954                       # number of demand (read+write) MSHR hits
system.cpu.dcache.demand_mshr_hits::total          954                       # number of demand (read+write) MSHR hits
system.cpu.dcache.overall_mshr_hits::.cpu.data          954                       # number of overall MSHR hits
system.cpu.dcache.overall_mshr_hits::total          954                       # number of overall MSHR hits
system.cpu.dcache.demand_mshr_misses::.cpu.data          343                       # number of demand (read+write) MSHR misses
system.cpu.dcache.demand_mshr_misses::total          343                       # number of demand (read+write) MSHR misses
system.cpu.dcache.overall_mshr_misses::.cpu.data          345                       # number of overall MSHR misses
system.cpu.dcache.overall_mshr_misses::total          345                       # number of overall MSHR misses
system.cpu.dcache.demand_mshr_miss_latency::.cpu.data     30321994                       # number of demand (read+write) MSHR miss cycles
system.cpu.dcache.demand_mshr_miss_latency::total     30321994                       # number of demand (read+write) MSHR miss cycles
system.cpu.dcache.overall_mshr_miss_latency::.cpu.data     30481494                       # number of overall MSHR miss cycles
system.cpu.dcache.overall_mshr_miss_latency::total     30481494                       # number of overall MSHR miss cycles
system.cpu.dcache.demand_mshr_miss_rate::.cpu.data     0.000110                       # mshr miss rate for demand accesses
system.cpu.dcache.demand_mshr_miss_rate::total     0.000110                       # mshr miss rate for demand accesses
system.cpu.dcache.overall_mshr_miss_rate::.cpu.data     0.000110                       # mshr miss rate for overall accesses
system.cpu.dcache.overall_mshr_miss_rate::total     0.000110                       # mshr miss rate for overall accesses
system.cpu.dcache.demand_avg_mshr_miss_latency::.cpu.data 88402.314869                       # average overall mshr miss latency
system.cpu.dcache.demand_avg_mshr_miss_latency::total 88402.314869                       # average overall mshr miss latency
system.cpu.dcache.overall_avg_mshr_miss_latency::.cpu.data 88352.156522                       # average overall mshr miss latency
system.cpu.dcache.overall_avg_mshr_miss_latency::total 88352.156522                       # average overall mshr miss latency
system.cpu.dcache.replacements                      0                       # number of replacements
system.cpu.dcache.ReadReq_hits::.cpu.data      1620002                       # number of ReadReq hits
system.cpu.dcache.ReadReq_hits::total         1620002                       # number of ReadReq hits
system.cpu.dcache.ReadReq_misses::.cpu.data          228                       # number of ReadReq misses
system.cpu.dcache.ReadReq_misses::total           228                       # number of ReadReq misses
system.cpu.dcache.ReadReq_miss_latency::.cpu.data     17007000                       # number of ReadReq miss cycles
system.cpu.dcache.ReadReq_miss_latency::total     17007000                       # number of ReadReq miss cycles
system.cpu.dcache.ReadReq_accesses::.cpu.data      1620230                       # number of ReadReq accesses(hits+misses)
system.cpu.dcache.ReadReq_accesses::total      1620230                       # number of ReadReq accesses(hits+misses)
system.cpu.dcache.ReadReq_miss_rate::.cpu.data     0.000141                       # miss rate for ReadReq accesses
system.cpu.dcache.ReadReq_miss_rate::total     0.000141                       # miss rate for ReadReq accesses
system.cpu.dcache.ReadReq_avg_miss_latency::.cpu.data 74592.105263                       # average ReadReq miss latency
system.cpu.dcache.ReadReq_avg_miss_latency::total 74592.105263                       # average ReadReq miss latency
system.cpu.dcache.ReadReq_mshr_hits::.cpu.data          125                       # number of ReadReq MSHR hits
system.cpu.dcache.ReadReq_mshr_hits::total          125                       # number of ReadReq MSHR hits
system.cpu.dcache.ReadReq_mshr_misses::.cpu.data          103                       # number of ReadReq MSHR misses
system.cpu.dcache.ReadReq_mshr_misses::total          103                       # number of ReadReq MSHR misses
system.cpu.dcache.ReadReq_mshr_miss_latency::.cpu.data      8806500                       # number of ReadReq MSHR miss cycles
system.cpu.dcache.ReadReq_mshr_miss_latency::total      8806500                       # number of ReadReq MSHR miss cycles
system.cpu.dcache.ReadReq_mshr_miss_rate::.cpu.data     0.000064                       # mshr miss rate for ReadReq accesses
system.cpu.dcache.ReadReq_mshr_miss_rate::total     0.000064                       # mshr miss rate for ReadReq accesses
system.cpu.dcache.ReadReq_avg_mshr_miss_latency::.cpu.data        85500                       # average ReadReq mshr miss latency
system.cpu.dcache.ReadReq_avg_mshr_miss_latency::total        85500                       # average ReadReq mshr miss latency
system.cpu.dcache.WriteReq_hits::.cpu.data      1509272                       # number of WriteReq hits
system.cpu.dcache.WriteReq_hits::total        1509272                       # number of WriteReq hits
system.cpu.dcache.WriteReq_misses::.cpu.data         1062                       # number of WriteReq misses
system.cpu.dcache.WriteReq_misses::total         1062                       # number of WriteReq misses
system.cpu.dcache.WriteReq_miss_latency::.cpu.data     84899463                       # number of WriteReq miss cycles
system.cpu.dcache.WriteReq_miss_latency::total     84899463                       # number of WriteReq miss cycles
system.cpu.dcache.WriteReq_accesses::.cpu.data      1510334                       # number of WriteReq accesses(hits+misses)
system.cpu.dcache.WriteReq_accesses::total      1510334                       # number of WriteReq accesses(hits+misses)
system.cpu.dcache.WriteReq_miss_rate::.cpu.data     0.000703                       # miss rate for WriteReq accesses
system.cpu.dcache.WriteReq_miss_rate::total     0.000703                       # miss rate for WriteReq accesses
system.cpu.dcache.WriteReq_avg_miss_latency::.cpu.data 79942.997175                       # average WriteReq miss latency
system.cpu.dcache.WriteReq_avg_miss_latency::total 79942.997175                       # average WriteReq miss latency
system.cpu.dcache.WriteReq_mshr_hits::.cpu.data          829                       # number of WriteReq MSHR hits
system.cpu.dcache.WriteReq_mshr_hits::total          829                       # number of WriteReq MSHR hits
system.cpu.dcache.WriteReq_mshr_misses::.cpu.data          233                       # number of WriteReq MSHR misses
system.cpu.dcache.WriteReq_mshr_misses::total          233                       # number of WriteReq MSHR misses
system.cpu.dcache.WriteReq_mshr_miss_latency::.cpu.data     21299996                       # number of WriteReq MSHR miss cycles
system.cpu.dcache.WriteReq_mshr_miss_latency::total     21299996                       # number of WriteReq MSHR miss cycles
system.cpu.dcache.WriteReq_mshr_miss_rate::.cpu.data     0.000154                       # mshr miss rate for WriteReq accesses
system.cpu.dcache.WriteReq_mshr_miss_rate::total     0.000154                       # mshr miss rate for WriteReq accesses
system.cpu.dcache.WriteReq_avg_mshr_miss_latency::.cpu.data 91416.291845                       # average WriteReq mshr miss latency
system.cpu.dcache.WriteReq_avg_mshr_miss_latency::total 91416.291845                       # average WriteReq mshr miss latency
system.cpu.dcache.SoftPFReq_hits::.cpu.data        11428                       # number of SoftPFReq hits
system.cpu.dcache.SoftPFReq_hits::total         11428                       # number of SoftPFReq hits
system.cpu.dcache.SoftPFReq_misses::.cpu.data            2                       # number of SoftPFReq misses
system.cpu.dcache.SoftPFReq_misses::total            2                       # number of SoftPFReq misses
system.cpu.dcache.SoftPFReq_accesses::.cpu.data        11430                       # number of SoftPFReq accesses(hits+misses)
system.cpu.dcache.SoftPFReq_accesses::total        11430                       # number of SoftPFReq accesses(hits+misses)
system.cpu.dcache.SoftPFReq_miss_rate::.cpu.data     0.000175                       # miss rate for SoftPFReq accesses
system.cpu.dcache.SoftPFReq_miss_rate::total     0.000175                       # miss rate for SoftPFReq accesses
system.cpu.dcache.SoftPFReq_mshr_misses::.cpu.data            2                       # number of SoftPFReq MSHR misses
system.cpu.dcache.SoftPFReq_mshr_misses::total            2                       # number of SoftPFReq MSHR misses
system.cpu.dcache.SoftPFReq_mshr_miss_latency::.cpu.data       159500                       # number of SoftPFReq MSHR miss cycles
system.cpu.dcache.SoftPFReq_mshr_miss_latency::total       159500                       # number of SoftPFReq MSHR miss cycles
system.cpu.dcache.SoftPFReq_mshr_miss_rate::.cpu.data     0.000175                       # mshr miss rate for SoftPFReq accesses
system.cpu.dcache.SoftPFReq_mshr_miss_rate::total     0.000175                       # mshr miss rate for SoftPFReq accesses
system.cpu.dcache.SoftPFReq_avg_mshr_miss_latency::.cpu.data        79750                       # average SoftPFReq mshr miss latency
system.cpu.dcache.SoftPFReq_avg_mshr_miss_latency::total        79750                       # average SoftPFReq mshr miss latency
system.cpu.dcache.WriteLineReq_misses::.cpu.data            7                       # number of WriteLineReq misses
system.cpu.dcache.WriteLineReq_misses::total            7                       # number of WriteLineReq misses
system.cpu.dcache.WriteLineReq_miss_latency::.cpu.data       222498                       # number of WriteLineReq miss cycles
system.cpu.dcache.WriteLineReq_miss_latency::total       222498                       # number of WriteLineReq miss cycles
system.cpu.dcache.WriteLineReq_accesses::.cpu.data            7                       # number of WriteLineReq accesses(hits+misses)
system.cpu.dcache.WriteLineReq_accesses::total            7                       # number of WriteLineReq accesses(hits+misses)
system.cpu.dcache.WriteLineReq_miss_rate::.cpu.data            1                       # miss rate for WriteLineReq accesses
system.cpu.dcache.WriteLineReq_miss_rate::total            1                       # miss rate for WriteLineReq accesses
system.cpu.dcache.WriteLineReq_avg_miss_latency::.cpu.data 31785.428571                       # average WriteLineReq miss latency
system.cpu.dcache.WriteLineReq_avg_miss_latency::total 31785.428571                       # average WriteLineReq miss latency
system.cpu.dcache.WriteLineReq_mshr_misses::.cpu.data            7                       # number of WriteLineReq MSHR misses
system.cpu.dcache.WriteLineReq_mshr_misses::total            7                       # number of WriteLineReq MSHR misses
system.cpu.dcache.WriteLineReq_mshr_miss_latency::.cpu.data       215498                       # number of WriteLineReq MSHR miss cycles
system.cpu.dcache.WriteLineReq_mshr_miss_latency::total       215498                       # number of WriteLineReq MSHR miss cycles
system.cpu.dcache.WriteLineReq_mshr_miss_rate::.cpu.data            1                       # mshr miss rate for WriteLineReq accesses
system.cpu.dcache.WriteLineReq_mshr_miss_rate::total            1                       # mshr miss rate for WriteLineReq accesses
system.cpu.dcache.WriteLineReq_avg_mshr_miss_latency::.cpu.data 30785.428571                       # average WriteLineReq mshr miss latency
system.cpu.dcache.WriteLineReq_avg_mshr_miss_latency::total 30785.428571                       # average WriteLineReq mshr miss latency
system.cpu.dcache.LoadLockedReq_hits::.cpu.data        11425                       # number of LoadLockedReq hits
system.cpu.dcache.LoadLockedReq_hits::total        11425                       # number of LoadLockedReq hits
system.cpu.dcache.LoadLockedReq_misses::.cpu.data            2                       # number of LoadLockedReq misses
system.cpu.dcache.LoadLockedReq_misses::total            2                       # number of LoadLockedReq misses
system.cpu.dcache.LoadLockedReq_miss_latency::.cpu.data       169000                       # number of LoadLockedReq miss cycles
system.cpu.dcache.LoadLockedReq_miss_latency::total       169000                       # number of LoadLockedReq miss cycles
system.cpu.dcache.LoadLockedReq_accesses::.cpu.data        11427                       # number of LoadLockedReq accesses(hits+misses)
system.cpu.dcache.LoadLockedReq_accesses::total        11427                       # number of LoadLockedReq accesses(hits+misses)
system.cpu.dcache.LoadLockedReq_miss_rate::.cpu.data     0.000175                       # miss rate for LoadLockedReq accesses
system.cpu.dcache.LoadLockedReq_miss_rate::total     0.000175                       # miss rate for LoadLockedReq accesses
system.cpu.dcache.LoadLockedReq_avg_miss_latency::.cpu.data        84500                       # average LoadLockedReq miss latency
system.cpu.dcache.LoadLockedReq_avg_miss_latency::total        84500                       # average LoadLockedReq miss latency
system.cpu.dcache.LoadLockedReq_mshr_hits::.cpu.data            1                       # number of LoadLockedReq MSHR hits
system.cpu.dcache.LoadLockedReq_mshr_hits::total            1                       # number of LoadLockedReq MSHR hits
system.cpu.dcache.LoadLockedReq_mshr_misses::.cpu.data            1                       # number of LoadLockedReq MSHR misses
system.cpu.dcache.LoadLockedReq_mshr_misses::total            1                       # number of LoadLockedReq MSHR misses
system.cpu.dcache.LoadLockedReq_mshr_miss_latency::.cpu.data        81500                       # number of LoadLockedReq MSHR miss cycles
system.cpu.dcache.LoadLockedReq_mshr_miss_latency::total        81500                       # number of LoadLockedReq MSHR miss cycles
system.cpu.dcache.LoadLockedReq_mshr_miss_rate::.cpu.data     0.000088                       # mshr miss rate for LoadLockedReq accesses
system.cpu.dcache.LoadLockedReq_mshr_miss_rate::total     0.000088                       # mshr miss rate for LoadLockedReq accesses
system.cpu.dcache.LoadLockedReq_avg_mshr_miss_latency::.cpu.data        81500                       # average LoadLockedReq mshr miss latency
system.cpu.dcache.LoadLockedReq_avg_mshr_miss_latency::total        81500                       # average LoadLockedReq mshr miss latency
system.cpu.dcache.StoreCondReq_hits::.cpu.data        11427                       # number of StoreCondReq hits
system.cpu.dcache.StoreCondReq_hits::total        11427                       # number of StoreCondReq hits
system.cpu.dcache.StoreCondReq_accesses::.cpu.data        11427                       # number of StoreCondReq accesses(hits+misses)
system.cpu.dcache.StoreCondReq_accesses::total        11427                       # number of StoreCondReq accesses(hits+misses)
system.cpu.dcache.power_state.pwrStateResidencyTicks::UNDEFINED  11811079500                       # Cumulative time (in ticks) in various power states
system.cpu.dcache.tags.tagsinuse           335.148849                       # Cycle average of tags in use
system.cpu.dcache.tags.total_refs             3163900                       # Total number of references to valid blocks.
system.cpu.dcache.tags.sampled_refs               346                       # Sample count of references to valid blocks.
system.cpu.dcache.tags.avg_refs           9144.219653                       # Average number of references to valid blocks.
system.cpu.dcache.tags.warmup_cycle            176500                       # Cycle when the warmup percentage was hit.
system.cpu.dcache.tags.occ_blocks::.cpu.data   335.148849                       # Average occupied blocks per requestor
system.cpu.dcache.tags.occ_percent::.cpu.data     0.327294                       # Average percentage of cache occupancy
system.cpu.dcache.tags.occ_percent::total     0.327294                       # Average percentage of cache occupancy
system.cpu.dcache.tags.occ_task_id_blocks::1024          346                       # Occupied blocks per task id
system.cpu.dcache.tags.age_task_id_blocks_1024::3            7                       # Occupied blocks per task id
system.cpu.dcache.tags.age_task_id_blocks_1024::4          339                       # Occupied blocks per task id
system.cpu.dcache.tags.occ_task_id_percent::1024     0.337891                       # Percentage of cache occupancy per task id
system.cpu.dcache.tags.tag_accesses           6330056                       # Number of tag accesses
system.cpu.dcache.tags.data_accesses          6330056                       # Number of data accesses
system.cpu.dcache.tags.power_state.pwrStateResidencyTicks::UNDEFINED  11811079500                       # Cumulative time (in ticks) in various power states
system.cpu.power_state.pwrStateResidencyTicks::ON  11811079500                       # Cumulative time (in ticks) in various power states

---------- End Simulation Statistics   ----------
