
---------- Begin Simulation Statistics ----------
final_tick                                 2841706000                       # Number of ticks from beginning of simulation (restored from checkpoints and never reset)
host_inst_rate                                 189057                       # Simulator instruction rate (inst/s)
host_mem_usage                                 898492                       # Number of bytes of host memory used
host_op_rate                                   215020                       # Simulator op (including micro ops) rate (op/s)
host_seconds                                    52.89                       # Real time elapsed on the host
host_tick_rate                               53724379                       # Simulator tick rate (ticks/s)
sim_freq                                 1000000000000                       # Frequency of simulated ticks
sim_insts                                    10000001                       # Number of instructions simulated
sim_ops                                      11373297                       # Number of ops (including micro ops) simulated
sim_seconds                                  0.002842                       # Number of seconds simulated
sim_ticks                                  2841706000                       # Number of ticks simulated
system.cpu.branchPred.BTBCorrect                    0                       # Number of correct BTB predictions (this stat may not work properly.
system.cpu.branchPred.BTBHitPct             98.216577                       # BTB Hit Percentage
system.cpu.branchPred.BTBHits                 1367987                       # Number of BTB hits
system.cpu.branchPred.BTBLookups              1392827                       # Number of BTB lookups
system.cpu.branchPred.RASInCorrect                 19                       # Number of incorrect RAS predictions.
system.cpu.branchPred.condIncorrect             46521                       # Number of conditional branches incorrect
system.cpu.branchPred.condPredicted           2466823                       # Number of conditional branches predicted
system.cpu.branchPred.indirectHits              28401                       # Number of indirect target hits.
system.cpu.branchPred.indirectLookups           32050                       # Number of indirect predictor lookups.
system.cpu.branchPred.indirectMisses             3649                       # Number of indirect misses.
system.cpu.branchPred.lookups                 2867829                       # Number of BP lookups
system.cpu.branchPred.usedRAS                  136063                       # Number of times the RAS was used to get a target.
system.cpu.branchPredindirectMispredicted          848                       # Number of mispredicted indirect branches.
system.cpu.cc_regfile_reads                   6037515                       # number of cc regfile reads
system.cpu.cc_regfile_writes                  6040501                       # number of cc regfile writes
system.cpu.commit.amos                              0                       # Number of atomic instructions committed
system.cpu.commit.branchMispredicts             39559                       # The number of times a branch was mispredicted
system.cpu.commit.branches                    2506891                       # Number of branches committed
system.cpu.commit.bw_lim_events                488451                       # number cycles where commit BW limit reached
system.cpu.commit.commitNonSpecStalls            5294                       # The number of times commit has been forced to stall to communicate backwards
system.cpu.commit.commitSquashedInsts          731121                       # The number of squashed insts skipped by commit
system.cpu.commit.committedInsts             10012014                       # Number of instructions committed
system.cpu.commit.committedOps               11385310                       # Number of ops (including micro ops) committed
system.cpu.commit.committed_per_cycle::samples      5362855                       # Number of insts commited each cycle
system.cpu.commit.committed_per_cycle::mean     2.122994                       # Number of insts commited each cycle
system.cpu.commit.committed_per_cycle::stdev     2.544995                       # Number of insts commited each cycle
system.cpu.commit.committed_per_cycle::underflows            0      0.00%      0.00% # Number of insts commited each cycle
system.cpu.commit.committed_per_cycle::0      1872403     34.91%     34.91% # Number of insts commited each cycle
system.cpu.commit.committed_per_cycle::1      1149879     21.44%     56.36% # Number of insts commited each cycle
system.cpu.commit.committed_per_cycle::2       805914     15.03%     71.38% # Number of insts commited each cycle
system.cpu.commit.committed_per_cycle::3       398335      7.43%     78.81% # Number of insts commited each cycle
system.cpu.commit.committed_per_cycle::4       135965      2.54%     81.35% # Number of insts commited each cycle
system.cpu.commit.committed_per_cycle::5       154372      2.88%     84.23% # Number of insts commited each cycle
system.cpu.commit.committed_per_cycle::6       297482      5.55%     89.77% # Number of insts commited each cycle
system.cpu.commit.committed_per_cycle::7        60054      1.12%     90.89% # Number of insts commited each cycle
system.cpu.commit.committed_per_cycle::8       488451      9.11%    100.00% # Number of insts commited each cycle
system.cpu.commit.committed_per_cycle::overflows            0      0.00%    100.00% # Number of insts commited each cycle
system.cpu.commit.committed_per_cycle::min_value            0                       # Number of insts commited each cycle
system.cpu.commit.committed_per_cycle::max_value            8                       # Number of insts commited each cycle
system.cpu.commit.committed_per_cycle::total      5362855                       # Number of insts commited each cycle
system.cpu.commit.fp_insts                          0                       # Number of committed floating point instructions.
system.cpu.commit.function_calls               116697                       # Number of function calls committed.
system.cpu.commit.int_insts                   9271243                       # Number of committed integer instructions.
system.cpu.commit.loads                       1741320                       # Number of loads committed
system.cpu.commit.membars                        5240                       # Number of memory barriers committed
system.cpu.commit.op_class_0::No_OpClass            5      0.00%      0.00% # Class of committed instruction
system.cpu.commit.op_class_0::IntAlu          8203252     72.05%     72.05% # Class of committed instruction
system.cpu.commit.op_class_0::IntMult           27722      0.24%     72.29% # Class of committed instruction
system.cpu.commit.op_class_0::IntDiv             1042      0.01%     72.30% # Class of committed instruction
system.cpu.commit.op_class_0::FloatAdd          86244      0.76%     73.06% # Class of committed instruction
system.cpu.commit.op_class_0::FloatCmp           5938      0.05%     73.11% # Class of committed instruction
system.cpu.commit.op_class_0::FloatCvt            506      0.00%     73.12% # Class of committed instruction
system.cpu.commit.op_class_0::FloatMult           719      0.01%     73.12% # Class of committed instruction
system.cpu.commit.op_class_0::FloatMultAcc        83053      0.73%     73.85% # Class of committed instruction
system.cpu.commit.op_class_0::FloatDiv             63      0.00%     73.85% # Class of committed instruction
system.cpu.commit.op_class_0::FloatMisc          5519      0.05%     73.90% # Class of committed instruction
system.cpu.commit.op_class_0::FloatSqrt          4214      0.04%     73.94% # Class of committed instruction
system.cpu.commit.op_class_0::SimdAdd              22      0.00%     73.94% # Class of committed instruction
system.cpu.commit.op_class_0::SimdAddAcc            0      0.00%     73.94% # Class of committed instruction
system.cpu.commit.op_class_0::SimdAlu              22      0.00%     73.94% # Class of committed instruction
system.cpu.commit.op_class_0::SimdCmp              20      0.00%     73.94% # Class of committed instruction
system.cpu.commit.op_class_0::SimdCvt              10      0.00%     73.94% # Class of committed instruction
system.cpu.commit.op_class_0::SimdMisc          28016      0.25%     74.19% # Class of committed instruction
system.cpu.commit.op_class_0::SimdMult              0      0.00%     74.19% # Class of committed instruction
system.cpu.commit.op_class_0::SimdMultAcc            0      0.00%     74.19% # Class of committed instruction
system.cpu.commit.op_class_0::SimdShift             0      0.00%     74.19% # Class of committed instruction
system.cpu.commit.op_class_0::SimdShiftAcc            0      0.00%     74.19% # Class of committed instruction
system.cpu.commit.op_class_0::SimdDiv               0      0.00%     74.19% # Class of committed instruction
system.cpu.commit.op_class_0::SimdSqrt              0      0.00%     74.19% # Class of committed instruction
system.cpu.commit.op_class_0::SimdFloatAdd            0      0.00%     74.19% # Class of committed instruction
system.cpu.commit.op_class_0::SimdFloatAlu            0      0.00%     74.19% # Class of committed instruction
system.cpu.commit.op_class_0::SimdFloatCmp            0      0.00%     74.19% # Class of committed instruction
system.cpu.commit.op_class_0::SimdFloatCvt            0      0.00%     74.19% # Class of committed instruction
system.cpu.commit.op_class_0::SimdFloatDiv            0      0.00%     74.19% # Class of committed instruction
system.cpu.commit.op_class_0::SimdFloatMisc            0      0.00%     74.19% # Class of committed instruction
system.cpu.commit.op_class_0::SimdFloatMult            0      0.00%     74.19% # Class of committed instruction
system.cpu.commit.op_class_0::SimdFloatMultAcc            0      0.00%     74.19% # Class of committed instruction
system.cpu.commit.op_class_0::SimdFloatSqrt            0      0.00%     74.19% # Class of committed instruction
system.cpu.commit.op_class_0::SimdReduceAdd            0      0.00%     74.19% # Class of committed instruction
system.cpu.commit.op_class_0::SimdReduceAlu            0      0.00%     74.19% # Class of committed instruction
system.cpu.commit.op_class_0::SimdReduceCmp            0      0.00%     74.19% # Class of committed instruction
system.cpu.commit.op_class_0::SimdFloatReduceAdd            0      0.00%     74.19% # Class of committed instruction
system.cpu.commit.op_class_0::SimdFloatReduceCmp            0      0.00%     74.19% # Class of committed instruction
system.cpu.commit.op_class_0::SimdAes               0      0.00%     74.19% # Class of committed instruction
system.cpu.commit.op_class_0::SimdAesMix            0      0.00%     74.19% # Class of committed instruction
system.cpu.commit.op_class_0::SimdSha1Hash            0      0.00%     74.19% # Class of committed instruction
system.cpu.commit.op_class_0::SimdSha1Hash2            0      0.00%     74.19% # Class of committed instruction
system.cpu.commit.op_class_0::SimdSha256Hash            0      0.00%     74.19% # Class of committed instruction
system.cpu.commit.op_class_0::SimdSha256Hash2            0      0.00%     74.19% # Class of committed instruction
system.cpu.commit.op_class_0::SimdShaSigma2            0      0.00%     74.19% # Class of committed instruction
system.cpu.commit.op_class_0::SimdShaSigma3            0      0.00%     74.19% # Class of committed instruction
system.cpu.commit.op_class_0::SimdPredAlu            0      0.00%     74.19% # Class of committed instruction
system.cpu.commit.op_class_0::MemRead         1741320     15.29%     89.48% # Class of committed instruction
system.cpu.commit.op_class_0::MemWrite        1197623     10.52%    100.00% # Class of committed instruction
system.cpu.commit.op_class_0::FloatMemRead            0      0.00%    100.00% # Class of committed instruction
system.cpu.commit.op_class_0::FloatMemWrite            0      0.00%    100.00% # Class of committed instruction
system.cpu.commit.op_class_0::IprAccess             0      0.00%    100.00% # Class of committed instruction
system.cpu.commit.op_class_0::InstPrefetch            0      0.00%    100.00% # Class of committed instruction
system.cpu.commit.op_class_0::total          11385310                       # Class of committed instruction
system.cpu.commit.refs                        2938943                       # Number of memory references committed
system.cpu.commit.swp_count                         0                       # Number of s/w prefetches committed
system.cpu.commit.vec_insts                    580319                       # Number of committed Vector instructions.
system.cpu.committedInsts                    10000001                       # Number of Instructions Simulated
system.cpu.committedOps                      11373297                       # Number of Ops (including micro ops) Simulated
system.cpu.cpi                               0.568341                       # CPI: Cycles Per Instruction
system.cpu.cpi_total                         0.568341                       # CPI: Total CPI of All Threads
system.cpu.decode.BlockedCycles                795791                       # Number of cycles decode is blocked
system.cpu.decode.BranchMispred                  7074                       # Number of times decode detected a branch misprediction
system.cpu.decode.BranchResolved              1341604                       # Number of times decode resolved a branch
system.cpu.decode.DecodedInsts               12496345                       # Number of instructions handled by decode
system.cpu.decode.IdleCycles                  2070739                       # Number of cycles decode is idle
system.cpu.decode.RunCycles                   2469817                       # Number of cycles decode is running
system.cpu.decode.SquashCycles                  39834                       # Number of cycles decode is squashing
system.cpu.decode.SquashedInsts                 24429                       # Number of squashed instructions handled by decode
system.cpu.decode.UnblockCycles                100044                       # Number of cycles decode is unblocking
system.cpu.dtb.accesses                             0                       # DTB accesses
system.cpu.dtb.align_faults                         0                       # Number of TLB faults due to alignment restrictions
system.cpu.dtb.domain_faults                        0                       # Number of TLB faults due to domain restrictions
system.cpu.dtb.flush_entries                        0                       # Number of entries that have been flushed from TLB
system.cpu.dtb.flush_tlb                            0                       # Number of times complete TLB was flushed
system.cpu.dtb.flush_tlb_asid                       0                       # Number of times TLB was flushed by ASID
system.cpu.dtb.flush_tlb_mva                        0                       # Number of times TLB was flushed by MVA
system.cpu.dtb.flush_tlb_mva_asid                   0                       # Number of times TLB was flushed by MVA & ASID
system.cpu.dtb.hits                                 0                       # DTB hits
system.cpu.dtb.inst_accesses                        0                       # ITB inst accesses
system.cpu.dtb.inst_hits                            0                       # ITB inst hits
system.cpu.dtb.inst_misses                          0                       # ITB inst misses
system.cpu.dtb.misses                               0                       # DTB misses
system.cpu.dtb.perms_faults                         0                       # Number of TLB faults due to permissions restrictions
system.cpu.dtb.prefetch_faults                      0                       # Number of TLB faults due to prefetch
system.cpu.dtb.read_accesses                        0                       # DTB read accesses
system.cpu.dtb.read_hits                            0                       # DTB read hits
system.cpu.dtb.read_misses                          0                       # DTB read misses
system.cpu.dtb.stage2_mmu.stage2_tlb.accesses            0                       # DTB accesses
system.cpu.dtb.stage2_mmu.stage2_tlb.align_faults            0                       # Number of TLB faults due to alignment restrictions
system.cpu.dtb.stage2_mmu.stage2_tlb.domain_faults            0                       # Number of TLB faults due to domain restrictions
system.cpu.dtb.stage2_mmu.stage2_tlb.flush_entries            0                       # Number of entries that have been flushed from TLB
system.cpu.dtb.stage2_mmu.stage2_tlb.flush_tlb            0                       # Number of times complete TLB was flushed
system.cpu.dtb.stage2_mmu.stage2_tlb.flush_tlb_asid            0                       # Number of times TLB was flushed by ASID
system.cpu.dtb.stage2_mmu.stage2_tlb.flush_tlb_mva            0                       # Number of times TLB was flushed by MVA
system.cpu.dtb.stage2_mmu.stage2_tlb.flush_tlb_mva_asid            0                       # Number of times TLB was flushed by MVA & ASID
system.cpu.dtb.stage2_mmu.stage2_tlb.hits            0                       # DTB hits
system.cpu.dtb.stage2_mmu.stage2_tlb.inst_accesses            0                       # ITB inst accesses
system.cpu.dtb.stage2_mmu.stage2_tlb.inst_hits            0                       # ITB inst hits
system.cpu.dtb.stage2_mmu.stage2_tlb.inst_misses            0                       # ITB inst misses
system.cpu.dtb.stage2_mmu.stage2_tlb.misses            0                       # DTB misses
system.cpu.dtb.stage2_mmu.stage2_tlb.perms_faults            0                       # Number of TLB faults due to permissions restrictions
system.cpu.dtb.stage2_mmu.stage2_tlb.prefetch_faults            0                       # Number of TLB faults due to prefetch
system.cpu.dtb.stage2_mmu.stage2_tlb.read_accesses            0                       # DTB read accesses
system.cpu.dtb.stage2_mmu.stage2_tlb.read_hits            0                       # DTB read hits
system.cpu.dtb.stage2_mmu.stage2_tlb.read_misses            0                       # DTB read misses
system.cpu.dtb.stage2_mmu.stage2_tlb.walker.walkRequestOrigin_Requested::Data            0                       # Table walker requests started/completed, data/inst
system.cpu.dtb.stage2_mmu.stage2_tlb.walker.walkRequestOrigin_Requested::Inst            0                       # Table walker requests started/completed, data/inst
system.cpu.dtb.stage2_mmu.stage2_tlb.walker.walkRequestOrigin_Requested::total            0                       # Table walker requests started/completed, data/inst
system.cpu.dtb.stage2_mmu.stage2_tlb.walker.walkRequestOrigin_Completed::Data            0                       # Table walker requests started/completed, data/inst
system.cpu.dtb.stage2_mmu.stage2_tlb.walker.walkRequestOrigin_Completed::Inst            0                       # Table walker requests started/completed, data/inst
system.cpu.dtb.stage2_mmu.stage2_tlb.walker.walkRequestOrigin_Completed::total            0                       # Table walker requests started/completed, data/inst
system.cpu.dtb.stage2_mmu.stage2_tlb.walker.walkRequestOrigin::total            0                       # Table walker requests started/completed, data/inst
system.cpu.dtb.stage2_mmu.stage2_tlb.walker.walks            0                       # Table walker walks requested
system.cpu.dtb.stage2_mmu.stage2_tlb.write_accesses            0                       # DTB write accesses
system.cpu.dtb.stage2_mmu.stage2_tlb.write_hits            0                       # DTB write hits
system.cpu.dtb.stage2_mmu.stage2_tlb.write_misses            0                       # DTB write misses
system.cpu.dtb.walker.walkRequestOrigin_Requested::Data            0                       # Table walker requests started/completed, data/inst
system.cpu.dtb.walker.walkRequestOrigin_Requested::Inst            0                       # Table walker requests started/completed, data/inst
system.cpu.dtb.walker.walkRequestOrigin_Requested::total            0                       # Table walker requests started/completed, data/inst
system.cpu.dtb.walker.walkRequestOrigin_Completed::Data            0                       # Table walker requests started/completed, data/inst
system.cpu.dtb.walker.walkRequestOrigin_Completed::Inst            0                       # Table walker requests started/completed, data/inst
system.cpu.dtb.walker.walkRequestOrigin_Completed::total            0                       # Table walker requests started/completed, data/inst
system.cpu.dtb.walker.walkRequestOrigin::total            0                       # Table walker requests started/completed, data/inst
system.cpu.dtb.walker.walks                         0                       # Table walker walks requested
system.cpu.dtb.write_accesses                       0                       # DTB write accesses
system.cpu.dtb.write_hits                           0                       # DTB write hits
system.cpu.dtb.write_misses                         0                       # DTB write misses
system.cpu.fetch.Branches                     2867829                       # Number of branches that fetch encountered
system.cpu.fetch.CacheLines                   1746483                       # Number of cache lines fetched
system.cpu.fetch.Cycles                       3226478                       # Number of cycles fetch has run and was not squashing or blocked
system.cpu.fetch.IcacheSquashes                 18155                       # Number of outstanding Icache misses that were squashed
system.cpu.fetch.Insts                       11320099                       # Number of instructions fetch has processed
system.cpu.fetch.SquashCycles                   93592                       # Number of cycles fetch has spent squashing
system.cpu.fetch.branchRate                  0.504596                       # Number of branch fetches per cycle
system.cpu.fetch.icacheStallCycles            2202951                       # Number of cycles fetch is stalled on an Icache miss
system.cpu.fetch.predictedBranches            1532451                       # Number of branches that fetch has predicted taken
system.cpu.fetch.rate                        1.991778                       # Number of inst fetches per cycle
system.cpu.fetch.rateDist::samples            5476225                       # Number of instructions fetched each cycle (Total)
system.cpu.fetch.rateDist::mean              2.336774                       # Number of instructions fetched each cycle (Total)
system.cpu.fetch.rateDist::stdev             2.884482                       # Number of instructions fetched each cycle (Total)
system.cpu.fetch.rateDist::underflows               0      0.00%      0.00% # Number of instructions fetched each cycle (Total)
system.cpu.fetch.rateDist::0                  2753400     50.28%     50.28% # Number of instructions fetched each cycle (Total)
system.cpu.fetch.rateDist::1                   167779      3.06%     53.34% # Number of instructions fetched each cycle (Total)
system.cpu.fetch.rateDist::2                   597930     10.92%     64.26% # Number of instructions fetched each cycle (Total)
system.cpu.fetch.rateDist::3                   168220      3.07%     67.33% # Number of instructions fetched each cycle (Total)
system.cpu.fetch.rateDist::4                   499684      9.12%     76.46% # Number of instructions fetched each cycle (Total)
system.cpu.fetch.rateDist::5                   157930      2.88%     79.34% # Number of instructions fetched each cycle (Total)
system.cpu.fetch.rateDist::6                   350679      6.40%     85.75% # Number of instructions fetched each cycle (Total)
system.cpu.fetch.rateDist::7                   208882      3.81%     89.56% # Number of instructions fetched each cycle (Total)
system.cpu.fetch.rateDist::8                   571721     10.44%    100.00% # Number of instructions fetched each cycle (Total)
system.cpu.fetch.rateDist::overflows                0      0.00%    100.00% # Number of instructions fetched each cycle (Total)
system.cpu.fetch.rateDist::min_value                0                       # Number of instructions fetched each cycle (Total)
system.cpu.fetch.rateDist::max_value                8                       # Number of instructions fetched each cycle (Total)
system.cpu.fetch.rateDist::total              5476225                       # Number of instructions fetched each cycle (Total)
system.cpu.idleCycles                          207189                       # Total number of cycles that the CPU has spent unscheduled due to idling
system.cpu.iew.branchMispredicts                49680                       # Number of branch mispredicts detected at execute
system.cpu.iew.exec_branches                  2577212                       # Number of branches executed
system.cpu.iew.exec_nop                         13278                       # number of nop insts executed
system.cpu.iew.exec_rate                     2.072412                       # Inst execution rate
system.cpu.iew.exec_refs                      3074483                       # number of memory reference insts executed
system.cpu.iew.exec_stores                    1220381                       # Number of stores executed
system.cpu.iew.exec_swp                             0                       # number of swp insts executed
system.cpu.iew.iewBlockCycles                  116083                       # Number of cycles IEW is blocking
system.cpu.iew.iewDispLoadInsts               1868299                       # Number of dispatched load instructions
system.cpu.iew.iewDispNonSpecInsts               5903                       # Number of dispatched non-speculative instructions
system.cpu.iew.iewDispSquashedInsts             25528                       # Number of squashed instructions skipped by dispatch
system.cpu.iew.iewDispStoreInsts              1246445                       # Number of dispatched store instructions
system.cpu.iew.iewDispatchedInsts            12116709                       # Number of instructions dispatched to IQ
system.cpu.iew.iewExecLoadInsts               1854102                       # Number of load instructions executed
system.cpu.iew.iewExecSquashedInsts             63592                       # Number of squashed instructions skipped in execute
system.cpu.iew.iewExecutedInsts              11778378                       # Number of executed instructions
system.cpu.iew.iewIQFullEvents                    454                       # Number of times the IQ has become full, causing a stall
system.cpu.iew.iewIdleCycles                        0                       # Number of cycles IEW is idle
system.cpu.iew.iewLSQFullEvents                  7024                       # Number of times the LSQ has become full, causing a stall
system.cpu.iew.iewSquashCycles                  39834                       # Number of cycles IEW is squashing
system.cpu.iew.iewUnblockCycles                  7729                       # Number of cycles IEW is unblocking
system.cpu.iew.lsq.thread0.blockedLoads             0                       # Number of blocked loads due to partial load-store forwarding
system.cpu.iew.lsq.thread0.cacheBlocked             6                       # Number of times an access to memory failed due to the cache being blocked
system.cpu.iew.lsq.thread0.forwLoads            21662                       # Number of loads that had data forwarded from stores
system.cpu.iew.lsq.thread0.ignoredResponses           17                       # Number of memory responses ignored because the instruction is squashed
system.cpu.iew.lsq.thread0.invAddrLoads             0                       # Number of loads ignored due to an invalid address
system.cpu.iew.lsq.thread0.invAddrSwpfs             0                       # Number of software prefetches ignored due to an invalid address
system.cpu.iew.lsq.thread0.memOrderViolation          252                       # Number of memory ordering violations
system.cpu.iew.lsq.thread0.rescheduledLoads        35649                       # Number of loads that were rescheduled
system.cpu.iew.lsq.thread0.squashedLoads       126977                       # Number of loads squashed
system.cpu.iew.lsq.thread0.squashedStores        48822                       # Number of stores squashed
system.cpu.iew.memOrderViolationEvents            252                       # Number of memory order violations
system.cpu.iew.predictedNotTakenIncorrect        32113                       # Number of branches that were predicted not taken incorrectly
system.cpu.iew.predictedTakenIncorrect          17567                       # Number of branches that were predicted taken incorrectly
system.cpu.iew.wb_consumers                  12331052                       # num instructions consuming a value
system.cpu.iew.wb_count                      11695511                       # cumulative count of insts written-back
system.cpu.iew.wb_fanout                     0.492830                       # average fanout of values written-back
system.cpu.iew.wb_producers                   6077111                       # num instructions producing a value
system.cpu.iew.wb_rate                       2.057832                       # insts written-back per cycle
system.cpu.iew.wb_sent                       11712302                       # cumulative count of insts sent to commit
system.cpu.int_regfile_reads                 13384897                       # number of integer regfile reads
system.cpu.int_regfile_writes                 7886838                       # number of integer regfile writes
system.cpu.ipc                               1.759506                       # IPC: Instructions Per Cycle
system.cpu.ipc_total                         1.759506                       # IPC: Total IPC of All Threads
system.cpu.iq.FU_type_0::No_OpClass                 5      0.00%      0.00% # Type of FU issued
system.cpu.iq.FU_type_0::IntAlu               8497449     71.76%     71.76% # Type of FU issued
system.cpu.iq.FU_type_0::IntMult                28187      0.24%     72.00% # Type of FU issued
system.cpu.iq.FU_type_0::IntDiv                  1098      0.01%     72.00% # Type of FU issued
system.cpu.iq.FU_type_0::FloatAdd               86264      0.73%     72.73% # Type of FU issued
system.cpu.iq.FU_type_0::FloatCmp                6026      0.05%     72.78% # Type of FU issued
system.cpu.iq.FU_type_0::FloatCvt                 513      0.00%     72.79% # Type of FU issued
system.cpu.iq.FU_type_0::FloatMult                741      0.01%     72.79% # Type of FU issued
system.cpu.iq.FU_type_0::FloatMultAcc           83064      0.70%     73.50% # Type of FU issued
system.cpu.iq.FU_type_0::FloatDiv                  64      0.00%     73.50% # Type of FU issued
system.cpu.iq.FU_type_0::FloatMisc               5914      0.05%     73.55% # Type of FU issued
system.cpu.iq.FU_type_0::FloatSqrt               4221      0.04%     73.58% # Type of FU issued
system.cpu.iq.FU_type_0::SimdAdd                   24      0.00%     73.58% # Type of FU issued
system.cpu.iq.FU_type_0::SimdAddAcc                 0      0.00%     73.58% # Type of FU issued
system.cpu.iq.FU_type_0::SimdAlu                   24      0.00%     73.58% # Type of FU issued
system.cpu.iq.FU_type_0::SimdCmp                   20      0.00%     73.58% # Type of FU issued
system.cpu.iq.FU_type_0::SimdCvt                   12      0.00%     73.58% # Type of FU issued
system.cpu.iq.FU_type_0::SimdMisc               28469      0.24%     73.82% # Type of FU issued
system.cpu.iq.FU_type_0::SimdMult                   0      0.00%     73.82% # Type of FU issued
system.cpu.iq.FU_type_0::SimdMultAcc                0      0.00%     73.82% # Type of FU issued
system.cpu.iq.FU_type_0::SimdShift                  0      0.00%     73.82% # Type of FU issued
system.cpu.iq.FU_type_0::SimdShiftAcc               0      0.00%     73.82% # Type of FU issued
system.cpu.iq.FU_type_0::SimdDiv                    0      0.00%     73.82% # Type of FU issued
system.cpu.iq.FU_type_0::SimdSqrt                   0      0.00%     73.82% # Type of FU issued
system.cpu.iq.FU_type_0::SimdFloatAdd               0      0.00%     73.82% # Type of FU issued
system.cpu.iq.FU_type_0::SimdFloatAlu               0      0.00%     73.82% # Type of FU issued
system.cpu.iq.FU_type_0::SimdFloatCmp               0      0.00%     73.82% # Type of FU issued
system.cpu.iq.FU_type_0::SimdFloatCvt               0      0.00%     73.82% # Type of FU issued
system.cpu.iq.FU_type_0::SimdFloatDiv               0      0.00%     73.82% # Type of FU issued
system.cpu.iq.FU_type_0::SimdFloatMisc              0      0.00%     73.82% # Type of FU issued
system.cpu.iq.FU_type_0::SimdFloatMult              0      0.00%     73.82% # Type of FU issued
system.cpu.iq.FU_type_0::SimdFloatMultAcc            0      0.00%     73.82% # Type of FU issued
system.cpu.iq.FU_type_0::SimdFloatSqrt              0      0.00%     73.82% # Type of FU issued
system.cpu.iq.FU_type_0::SimdReduceAdd              0      0.00%     73.82% # Type of FU issued
system.cpu.iq.FU_type_0::SimdReduceAlu              0      0.00%     73.82% # Type of FU issued
system.cpu.iq.FU_type_0::SimdReduceCmp              0      0.00%     73.82% # Type of FU issued
system.cpu.iq.FU_type_0::SimdFloatReduceAdd            0      0.00%     73.82% # Type of FU issued
system.cpu.iq.FU_type_0::SimdFloatReduceCmp            0      0.00%     73.82% # Type of FU issued
system.cpu.iq.FU_type_0::SimdAes                    0      0.00%     73.82% # Type of FU issued
system.cpu.iq.FU_type_0::SimdAesMix                 0      0.00%     73.82% # Type of FU issued
system.cpu.iq.FU_type_0::SimdSha1Hash               0      0.00%     73.82% # Type of FU issued
system.cpu.iq.FU_type_0::SimdSha1Hash2              0      0.00%     73.82% # Type of FU issued
system.cpu.iq.FU_type_0::SimdSha256Hash             0      0.00%     73.82% # Type of FU issued
system.cpu.iq.FU_type_0::SimdSha256Hash2            0      0.00%     73.82% # Type of FU issued
system.cpu.iq.FU_type_0::SimdShaSigma2              0      0.00%     73.82% # Type of FU issued
system.cpu.iq.FU_type_0::SimdShaSigma3              0      0.00%     73.82% # Type of FU issued
system.cpu.iq.FU_type_0::SimdPredAlu                0      0.00%     73.82% # Type of FU issued
system.cpu.iq.FU_type_0::MemRead              1873988     15.82%     89.65% # Type of FU issued
system.cpu.iq.FU_type_0::MemWrite             1225892     10.35%    100.00% # Type of FU issued
system.cpu.iq.FU_type_0::FloatMemRead               0      0.00%    100.00% # Type of FU issued
system.cpu.iq.FU_type_0::FloatMemWrite              0      0.00%    100.00% # Type of FU issued
system.cpu.iq.FU_type_0::IprAccess                  0      0.00%    100.00% # Type of FU issued
system.cpu.iq.FU_type_0::InstPrefetch               0      0.00%    100.00% # Type of FU issued
system.cpu.iq.FU_type_0::total               11841975                       # Type of FU issued
system.cpu.iq.fp_alu_accesses                       0                       # Number of floating point alu accesses
system.cpu.iq.fp_inst_queue_reads                   0                       # Number of floating instruction queue reads
system.cpu.iq.fp_inst_queue_wakeup_accesses            0                       # Number of floating instruction queue wakeup accesses
system.cpu.iq.fp_inst_queue_writes                  0                       # Number of floating instruction queue writes
system.cpu.iq.fu_busy_cnt                      172206                       # FU busy when requested
system.cpu.iq.fu_busy_rate                   0.014542                       # FU busy rate (busy events/executed inst)
system.cpu.iq.fu_full::No_OpClass                   0      0.00%      0.00% # attempts to use FU when none available
system.cpu.iq.fu_full::IntAlu                   37040     21.51%     21.51% # attempts to use FU when none available
system.cpu.iq.fu_full::IntMult                     30      0.02%     21.53% # attempts to use FU when none available
system.cpu.iq.fu_full::IntDiv                       0      0.00%     21.53% # attempts to use FU when none available
system.cpu.iq.fu_full::FloatAdd                     0      0.00%     21.53% # attempts to use FU when none available
system.cpu.iq.fu_full::FloatCmp                     0      0.00%     21.53% # attempts to use FU when none available
system.cpu.iq.fu_full::FloatCvt                     0      0.00%     21.53% # attempts to use FU when none available
system.cpu.iq.fu_full::FloatMult                  122      0.07%     21.60% # attempts to use FU when none available
system.cpu.iq.fu_full::FloatMultAcc                98      0.06%     21.65% # attempts to use FU when none available
system.cpu.iq.fu_full::FloatDiv                   238      0.14%     21.79% # attempts to use FU when none available
system.cpu.iq.fu_full::FloatMisc                   33      0.02%     21.81% # attempts to use FU when none available
system.cpu.iq.fu_full::FloatSqrt                   27      0.02%     21.83% # attempts to use FU when none available
system.cpu.iq.fu_full::SimdAdd                      0      0.00%     21.83% # attempts to use FU when none available
system.cpu.iq.fu_full::SimdAddAcc                   0      0.00%     21.83% # attempts to use FU when none available
system.cpu.iq.fu_full::SimdAlu                      1      0.00%     21.83% # attempts to use FU when none available
system.cpu.iq.fu_full::SimdCmp                      2      0.00%     21.83% # attempts to use FU when none available
system.cpu.iq.fu_full::SimdCvt                      0      0.00%     21.83% # attempts to use FU when none available
system.cpu.iq.fu_full::SimdMisc                     0      0.00%     21.83% # attempts to use FU when none available
system.cpu.iq.fu_full::SimdMult                     0      0.00%     21.83% # attempts to use FU when none available
system.cpu.iq.fu_full::SimdMultAcc                  0      0.00%     21.83% # attempts to use FU when none available
system.cpu.iq.fu_full::SimdShift                    0      0.00%     21.83% # attempts to use FU when none available
system.cpu.iq.fu_full::SimdShiftAcc                 0      0.00%     21.83% # attempts to use FU when none available
system.cpu.iq.fu_full::SimdDiv                      0      0.00%     21.83% # attempts to use FU when none available
system.cpu.iq.fu_full::SimdSqrt                     0      0.00%     21.83% # attempts to use FU when none available
system.cpu.iq.fu_full::SimdFloatAdd                 0      0.00%     21.83% # attempts to use FU when none available
system.cpu.iq.fu_full::SimdFloatAlu                 0      0.00%     21.83% # attempts to use FU when none available
system.cpu.iq.fu_full::SimdFloatCmp                 0      0.00%     21.83% # attempts to use FU when none available
system.cpu.iq.fu_full::SimdFloatCvt                 0      0.00%     21.83% # attempts to use FU when none available
system.cpu.iq.fu_full::SimdFloatDiv                 0      0.00%     21.83% # attempts to use FU when none available
system.cpu.iq.fu_full::SimdFloatMisc                0      0.00%     21.83% # attempts to use FU when none available
system.cpu.iq.fu_full::SimdFloatMult                0      0.00%     21.83% # attempts to use FU when none available
system.cpu.iq.fu_full::SimdFloatMultAcc             0      0.00%     21.83% # attempts to use FU when none available
system.cpu.iq.fu_full::SimdFloatSqrt                0      0.00%     21.83% # attempts to use FU when none available
system.cpu.iq.fu_full::SimdReduceAdd                0      0.00%     21.83% # attempts to use FU when none available
system.cpu.iq.fu_full::SimdReduceAlu                0      0.00%     21.83% # attempts to use FU when none available
system.cpu.iq.fu_full::SimdReduceCmp                0      0.00%     21.83% # attempts to use FU when none available
system.cpu.iq.fu_full::SimdFloatReduceAdd            0      0.00%     21.83% # attempts to use FU when none available
system.cpu.iq.fu_full::SimdFloatReduceCmp            0      0.00%     21.83% # attempts to use FU when none available
system.cpu.iq.fu_full::SimdAes                      0      0.00%     21.83% # attempts to use FU when none available
system.cpu.iq.fu_full::SimdAesMix                   0      0.00%     21.83% # attempts to use FU when none available
system.cpu.iq.fu_full::SimdSha1Hash                 0      0.00%     21.83% # attempts to use FU when none available
system.cpu.iq.fu_full::SimdSha1Hash2                0      0.00%     21.83% # attempts to use FU when none available
system.cpu.iq.fu_full::SimdSha256Hash               0      0.00%     21.83% # attempts to use FU when none available
system.cpu.iq.fu_full::SimdSha256Hash2              0      0.00%     21.83% # attempts to use FU when none available
system.cpu.iq.fu_full::SimdShaSigma2                0      0.00%     21.83% # attempts to use FU when none available
system.cpu.iq.fu_full::SimdShaSigma3                0      0.00%     21.83% # attempts to use FU when none available
system.cpu.iq.fu_full::SimdPredAlu                  0      0.00%     21.83% # attempts to use FU when none available
system.cpu.iq.fu_full::MemRead                  48402     28.11%     49.94% # attempts to use FU when none available
system.cpu.iq.fu_full::MemWrite                 86213     50.06%    100.00% # attempts to use FU when none available
system.cpu.iq.fu_full::FloatMemRead                 0      0.00%    100.00% # attempts to use FU when none available
system.cpu.iq.fu_full::FloatMemWrite                0      0.00%    100.00% # attempts to use FU when none available
system.cpu.iq.fu_full::IprAccess                    0      0.00%    100.00% # attempts to use FU when none available
system.cpu.iq.fu_full::InstPrefetch                 0      0.00%    100.00% # attempts to use FU when none available
system.cpu.iq.int_alu_accesses               11405469                       # Number of integer alu accesses
system.cpu.iq.int_inst_queue_reads           28141309                       # Number of integer instruction queue reads
system.cpu.iq.int_inst_queue_wakeup_accesses     11112130                       # Number of integer instruction queue wakeup accesses
system.cpu.iq.int_inst_queue_writes          12236857                       # Number of integer instruction queue writes
system.cpu.iq.iqInstsAdded                   12097528                       # Number of instructions added to the IQ (excludes non-spec)
system.cpu.iq.iqInstsIssued                  11841975                       # Number of instructions issued
system.cpu.iq.iqNonSpecInstsAdded                5903                       # Number of non-speculative instructions added to the IQ
system.cpu.iq.iqSquashedInstsExamined          730123                       # Number of squashed instructions iterated over during squash; mainly for profiling
system.cpu.iq.iqSquashedInstsIssued              3062                       # Number of squashed instructions issued
system.cpu.iq.iqSquashedNonSpecRemoved            609                       # Number of squashed non-spec instructions that were removed
system.cpu.iq.iqSquashedOperandsExamined       739203                       # Number of squashed operands that are examined and possibly removed from graph
system.cpu.iq.issued_per_cycle::samples       5476225                       # Number of insts issued each cycle
system.cpu.iq.issued_per_cycle::mean         2.162434                       # Number of insts issued each cycle
system.cpu.iq.issued_per_cycle::stdev        2.212002                       # Number of insts issued each cycle
system.cpu.iq.issued_per_cycle::underflows            0      0.00%      0.00% # Number of insts issued each cycle
system.cpu.iq.issued_per_cycle::0             1731383     31.62%     31.62% # Number of insts issued each cycle
system.cpu.iq.issued_per_cycle::1             1055830     19.28%     50.90% # Number of insts issued each cycle
system.cpu.iq.issued_per_cycle::2              672113     12.27%     63.17% # Number of insts issued each cycle
system.cpu.iq.issued_per_cycle::3              584678     10.68%     73.85% # Number of insts issued each cycle
system.cpu.iq.issued_per_cycle::4              484552      8.85%     82.69% # Number of insts issued each cycle
system.cpu.iq.issued_per_cycle::5              263974      4.82%     87.52% # Number of insts issued each cycle
system.cpu.iq.issued_per_cycle::6              441826      8.07%     95.58% # Number of insts issued each cycle
system.cpu.iq.issued_per_cycle::7              156101      2.85%     98.43% # Number of insts issued each cycle
system.cpu.iq.issued_per_cycle::8               85768      1.57%    100.00% # Number of insts issued each cycle
system.cpu.iq.issued_per_cycle::overflows            0      0.00%    100.00% # Number of insts issued each cycle
system.cpu.iq.issued_per_cycle::min_value            0                       # Number of insts issued each cycle
system.cpu.iq.issued_per_cycle::max_value            8                       # Number of insts issued each cycle
system.cpu.iq.issued_per_cycle::total         5476225                       # Number of insts issued each cycle
system.cpu.iq.rate                           2.083602                       # Inst issue rate
system.cpu.iq.vec_alu_accesses                 608707                       # Number of vector alu accesses
system.cpu.iq.vec_inst_queue_reads            1194129                       # Number of vector instruction queue reads
system.cpu.iq.vec_inst_queue_wakeup_accesses       583381                       # Number of vector instruction queue wakeup accesses
system.cpu.iq.vec_inst_queue_writes            596945                       # Number of vector instruction queue writes
system.cpu.itb.accesses                             0                       # DTB accesses
system.cpu.itb.align_faults                         0                       # Number of TLB faults due to alignment restrictions
system.cpu.itb.domain_faults                        0                       # Number of TLB faults due to domain restrictions
system.cpu.itb.flush_entries                        0                       # Number of entries that have been flushed from TLB
system.cpu.itb.flush_tlb                            0                       # Number of times complete TLB was flushed
system.cpu.itb.flush_tlb_asid                       0                       # Number of times TLB was flushed by ASID
system.cpu.itb.flush_tlb_mva                        0                       # Number of times TLB was flushed by MVA
system.cpu.itb.flush_tlb_mva_asid                   0                       # Number of times TLB was flushed by MVA & ASID
system.cpu.itb.hits                                 0                       # DTB hits
system.cpu.itb.inst_accesses                        0                       # ITB inst accesses
system.cpu.itb.inst_hits                            0                       # ITB inst hits
system.cpu.itb.inst_misses                          0                       # ITB inst misses
system.cpu.itb.misses                               0                       # DTB misses
system.cpu.itb.perms_faults                         0                       # Number of TLB faults due to permissions restrictions
system.cpu.itb.prefetch_faults                      0                       # Number of TLB faults due to prefetch
system.cpu.itb.read_accesses                        0                       # DTB read accesses
system.cpu.itb.read_hits                            0                       # DTB read hits
system.cpu.itb.read_misses                          0                       # DTB read misses
system.cpu.itb.stage2_mmu.stage2_tlb.accesses            0                       # DTB accesses
system.cpu.itb.stage2_mmu.stage2_tlb.align_faults            0                       # Number of TLB faults due to alignment restrictions
system.cpu.itb.stage2_mmu.stage2_tlb.domain_faults            0                       # Number of TLB faults due to domain restrictions
system.cpu.itb.stage2_mmu.stage2_tlb.flush_entries            0                       # Number of entries that have been flushed from TLB
system.cpu.itb.stage2_mmu.stage2_tlb.flush_tlb            0                       # Number of times complete TLB was flushed
system.cpu.itb.stage2_mmu.stage2_tlb.flush_tlb_asid            0                       # Number of times TLB was flushed by ASID
system.cpu.itb.stage2_mmu.stage2_tlb.flush_tlb_mva            0                       # Number of times TLB was flushed by MVA
system.cpu.itb.stage2_mmu.stage2_tlb.flush_tlb_mva_asid            0                       # Number of times TLB was flushed by MVA & ASID
system.cpu.itb.stage2_mmu.stage2_tlb.hits            0                       # DTB hits
system.cpu.itb.stage2_mmu.stage2_tlb.inst_accesses            0                       # ITB inst accesses
system.cpu.itb.stage2_mmu.stage2_tlb.inst_hits            0                       # ITB inst hits
system.cpu.itb.stage2_mmu.stage2_tlb.inst_misses            0                       # ITB inst misses
system.cpu.itb.stage2_mmu.stage2_tlb.misses            0                       # DTB misses
system.cpu.itb.stage2_mmu.stage2_tlb.perms_faults            0                       # Number of TLB faults due to permissions restrictions
system.cpu.itb.stage2_mmu.stage2_tlb.prefetch_faults            0                       # Number of TLB faults due to prefetch
system.cpu.itb.stage2_mmu.stage2_tlb.read_accesses            0                       # DTB read accesses
system.cpu.itb.stage2_mmu.stage2_tlb.read_hits            0                       # DTB read hits
system.cpu.itb.stage2_mmu.stage2_tlb.read_misses            0                       # DTB read misses
system.cpu.itb.stage2_mmu.stage2_tlb.walker.walkRequestOrigin_Requested::Data            0                       # Table walker requests started/completed, data/inst
system.cpu.itb.stage2_mmu.stage2_tlb.walker.walkRequestOrigin_Requested::Inst            0                       # Table walker requests started/completed, data/inst
system.cpu.itb.stage2_mmu.stage2_tlb.walker.walkRequestOrigin_Requested::total            0                       # Table walker requests started/completed, data/inst
system.cpu.itb.stage2_mmu.stage2_tlb.walker.walkRequestOrigin_Completed::Data            0                       # Table walker requests started/completed, data/inst
system.cpu.itb.stage2_mmu.stage2_tlb.walker.walkRequestOrigin_Completed::Inst            0                       # Table walker requests started/completed, data/inst
system.cpu.itb.stage2_mmu.stage2_tlb.walker.walkRequestOrigin_Completed::total            0                       # Table walker requests started/completed, data/inst
system.cpu.itb.stage2_mmu.stage2_tlb.walker.walkRequestOrigin::total            0                       # Table walker requests started/completed, data/inst
system.cpu.itb.stage2_mmu.stage2_tlb.walker.walks            0                       # Table walker walks requested
system.cpu.itb.stage2_mmu.stage2_tlb.write_accesses            0                       # DTB write accesses
system.cpu.itb.stage2_mmu.stage2_tlb.write_hits            0                       # DTB write hits
system.cpu.itb.stage2_mmu.stage2_tlb.write_misses            0                       # DTB write misses
system.cpu.itb.walker.walkRequestOrigin_Requested::Data            0                       # Table walker requests started/completed, data/inst
system.cpu.itb.walker.walkRequestOrigin_Requested::Inst            0                       # Table walker requests started/completed, data/inst
system.cpu.itb.walker.walkRequestOrigin_Requested::total            0                       # Table walker requests started/completed, data/inst
system.cpu.itb.walker.walkRequestOrigin_Completed::Data            0                       # Table walker requests started/completed, data/inst
system.cpu.itb.walker.walkRequestOrigin_Completed::Inst            0                       # Table walker requests started/completed, data/inst
system.cpu.itb.walker.walkRequestOrigin_Completed::total            0                       # Table walker requests started/completed, data/inst
system.cpu.itb.walker.walkRequestOrigin::total            0                       # Table walker requests started/completed, data/inst
system.cpu.itb.walker.walks                         0                       # Table walker walks requested
system.cpu.itb.write_accesses                       0                       # DTB write accesses
system.cpu.itb.write_hits                           0                       # DTB write hits
system.cpu.itb.write_misses                         0                       # DTB write misses
system.cpu.memDep0.conflictingLoads             33183                       # Number of conflicting loads.
system.cpu.memDep0.conflictingStores            65145                       # Number of conflicting stores.
system.cpu.memDep0.insertedLoads              1868299                       # Number of loads inserted to the mem dependence unit.
system.cpu.memDep0.insertedStores             1246445                       # Number of stores inserted to the mem dependence unit.
system.cpu.misc_regfile_reads                 9143309                       # number of misc regfile reads
system.cpu.misc_regfile_writes                 202510                       # number of misc regfile writes
system.cpu.numCycles                          5683414                       # number of cpu cycles simulated
system.cpu.numWorkItemsCompleted                    0                       # number of work items this cpu completed
system.cpu.numWorkItemsStarted                      0                       # number of work items this cpu started
system.cpu.rename.BlockCycles                  131164                       # Number of cycles rename is blocking
system.cpu.rename.CommittedMaps              14124428                       # Number of HB maps that are committed
system.cpu.rename.IQFullEvents                  44042                       # Number of times rename has blocked due to IQ full
system.cpu.rename.IdleCycles                  2136750                       # Number of cycles rename is idle
system.cpu.rename.LQFullEvents                  88010                       # Number of times rename has blocked due to LQ full
system.cpu.rename.ROBFullEvents                   167                       # Number of times rename has blocked due to ROB full
system.cpu.rename.RenameLookups              22570472                       # Number of register rename lookups that rename has made
system.cpu.rename.RenamedInsts               12349209                       # Number of instructions processed by rename
system.cpu.rename.RenamedOperands            15337066                       # Number of destination operands rename has renamed
system.cpu.rename.RunCycles                   2498816                       # Number of cycles rename is running
system.cpu.rename.SQFullEvents                 153993                       # Number of times rename has blocked due to SQ full
system.cpu.rename.SquashCycles                  39834                       # Number of cycles rename is squashing
system.cpu.rename.UnblockCycles                328005                       # Number of cycles rename is unblocking
system.cpu.rename.UndoneMaps                  1212611                       # Number of HB maps that are undone due to squashing
system.cpu.rename.int_rename_lookups         14028055                       # Number of integer rename lookups
system.cpu.rename.serializeStallCycles         341656                       # count of cycles rename stalled for serializing inst
system.cpu.rename.serializingInsts              24363                       # count of serializing insts renamed
system.cpu.rename.skidInsts                    487259                       # count of insts added to the skid buffer
system.cpu.rename.tempSerializingInsts           5911                       # count of temporary serializing insts renamed
system.cpu.rename.vec_rename_lookups           634591                       # Number of vector rename lookups
system.cpu.rob.rob_reads                     16989977                       # The number of ROB reads
system.cpu.rob.rob_writes                    24347137                       # The number of ROB writes
system.cpu.timesIdled                           14306                       # Number of times that the entire CPU went into an idle state and unscheduled itself
system.cpu.vec_regfile_reads                   627176                       # number of vector regfile reads
system.cpu.vec_regfile_writes                  390023                       # number of vector regfile writes
system.cpu.workload.numSyscalls                    53                       # Number of system calls
system.membus.snoop_filter.hit_multi_requests            0                       # Number of requests hitting in the snoop filter with multiple (>1) holders of the requested data.
system.membus.snoop_filter.hit_multi_snoops            0                       # Number of snoops hitting in the snoop filter with multiple (>1) holders of the requested data.
system.membus.snoop_filter.hit_single_requests            0                       # Number of requests hitting in the snoop filter with a single holder of the requested data.
system.membus.snoop_filter.hit_single_snoops            0                       # Number of snoops hitting in the snoop filter with a single holder of the requested data.
system.membus.snoop_filter.tot_requests          3743                       # Total number of requests made to the snoop filter.
system.membus.snoop_filter.tot_snoops               0                       # Total number of snoops made to the snoop filter.
system.tol2bus.snoop_filter.hit_multi_requests            9                       # Number of requests hitting in the snoop filter with multiple (>1) holders of the requested data.
system.tol2bus.snoop_filter.hit_multi_snoops            0                       # Number of snoops hitting in the snoop filter with multiple (>1) holders of the requested data.
system.tol2bus.snoop_filter.hit_single_requests        22041                       # Number of requests hitting in the snoop filter with a single holder of the requested data.
system.tol2bus.snoop_filter.hit_single_snoops            0                       # Number of snoops hitting in the snoop filter with a single holder of the requested data.
system.tol2bus.snoop_filter.tot_requests        46016                       # Total number of requests made to the snoop filter.
system.tol2bus.snoop_filter.tot_snoops              0                       # Total number of snoops made to the snoop filter.
system.membus.trans_dist::ReadResp               3060                       # Transaction distribution
system.membus.trans_dist::ReadExReq               526                       # Transaction distribution
system.membus.trans_dist::ReadExResp              526                       # Transaction distribution
system.membus.trans_dist::ReadSharedReq          3060                       # Transaction distribution
system.membus.trans_dist::InvalidateReq           157                       # Transaction distribution
system.membus.pkt_count_system.l2.mem_side::system.mem_ctrls.port         7329                       # Packet count per connected master and slave (bytes)
system.membus.pkt_count::total                   7329                       # Packet count per connected master and slave (bytes)
system.membus.pkt_size_system.l2.mem_side::system.mem_ctrls.port       229504                       # Cumulative packet size per connected master and slave (bytes)
system.membus.pkt_size::total                  229504                       # Cumulative packet size per connected master and slave (bytes)
system.membus.snoops                                0                       # Total snoops (count)
system.membus.snoopTraffic                          0                       # Total snoop traffic (bytes)
system.membus.snoop_fanout::samples              3743                       # Request fanout histogram
system.membus.snoop_fanout::mean                    0                       # Request fanout histogram
system.membus.snoop_fanout::stdev                   0                       # Request fanout histogram
system.membus.snoop_fanout::underflows              0      0.00%      0.00% # Request fanout histogram
system.membus.snoop_fanout::0                    3743    100.00%    100.00% # Request fanout histogram
system.membus.snoop_fanout::1                       0      0.00%    100.00% # Request fanout histogram
system.membus.snoop_fanout::overflows               0      0.00%    100.00% # Request fanout histogram
system.membus.snoop_fanout::min_value               0                       # Request fanout histogram
system.membus.snoop_fanout::max_value               0                       # Request fanout histogram
system.membus.snoop_fanout::total                3743                       # Request fanout histogram
system.membus.reqLayer0.occupancy             4514500                       # Layer occupancy (ticks)
system.membus.reqLayer0.utilization               0.2                       # Layer utilization (%)
system.membus.respLayer1.occupancy           18989250                       # Layer occupancy (ticks)
system.membus.respLayer1.utilization              0.7                       # Layer utilization (%)
system.membus.power_state.pwrStateResidencyTicks::UNDEFINED   2841706000                       # Cumulative time (in ticks) in various power states
system.tol2bus.trans_dist::ReadResp             23230                       # Transaction distribution
system.tol2bus.trans_dist::WritebackDirty          634                       # Transaction distribution
system.tol2bus.trans_dist::WritebackClean        20987                       # Transaction distribution
system.tol2bus.trans_dist::CleanEvict             411                       # Transaction distribution
system.tol2bus.trans_dist::UpgradeReq               5                       # Transaction distribution
system.tol2bus.trans_dist::UpgradeResp              5                       # Transaction distribution
system.tol2bus.trans_dist::ReadExReq              589                       # Transaction distribution
system.tol2bus.trans_dist::ReadExResp             589                       # Transaction distribution
system.tol2bus.trans_dist::ReadCleanReq         21964                       # Transaction distribution
system.tol2bus.trans_dist::ReadSharedReq         1266                       # Transaction distribution
system.tol2bus.trans_dist::InvalidateReq          160                       # Transaction distribution
system.tol2bus.trans_dist::InvalidateResp          160                       # Transaction distribution
system.tol2bus.pkt_count_system.cpu.icache.mem_side::system.l2.cpu_side        64907                       # Packet count per connected master and slave (bytes)
system.tol2bus.pkt_count_system.cpu.dcache.mem_side::system.l2.cpu_side         5085                       # Packet count per connected master and slave (bytes)
system.tol2bus.pkt_count::total                 69992                       # Packet count per connected master and slave (bytes)
system.tol2bus.pkt_size_system.cpu.icache.mem_side::system.l2.cpu_side      2748352                       # Cumulative packet size per connected master and slave (bytes)
system.tol2bus.pkt_size_system.cpu.dcache.mem_side::system.l2.cpu_side       159296                       # Cumulative packet size per connected master and slave (bytes)
system.tol2bus.pkt_size::total                2907648                       # Cumulative packet size per connected master and slave (bytes)
system.tol2bus.snoops                               8                       # Total snoops (count)
system.tol2bus.snoopTraffic                       512                       # Total snoop traffic (bytes)
system.tol2bus.snoop_fanout::samples            23984                       # Request fanout histogram
system.tol2bus.snoop_fanout::mean            0.000751                       # Request fanout histogram
system.tol2bus.snoop_fanout::stdev           0.027386                       # Request fanout histogram
system.tol2bus.snoop_fanout::underflows             0      0.00%      0.00% # Request fanout histogram
system.tol2bus.snoop_fanout::0                  23966     99.92%     99.92% # Request fanout histogram
system.tol2bus.snoop_fanout::1                     18      0.08%    100.00% # Request fanout histogram
system.tol2bus.snoop_fanout::2                      0      0.00%    100.00% # Request fanout histogram
system.tol2bus.snoop_fanout::overflows              0      0.00%    100.00% # Request fanout histogram
system.tol2bus.snoop_fanout::min_value              0                       # Request fanout histogram
system.tol2bus.snoop_fanout::max_value              1                       # Request fanout histogram
system.tol2bus.snoop_fanout::total              23984                       # Request fanout histogram
system.tol2bus.reqLayer0.occupancy           44629000                       # Layer occupancy (ticks)
system.tol2bus.reqLayer0.utilization              1.6                       # Layer utilization (%)
system.tol2bus.respLayer1.occupancy           2865000                       # Layer occupancy (ticks)
system.tol2bus.respLayer1.utilization             0.1                       # Layer utilization (%)
system.tol2bus.respLayer0.occupancy          32946000                       # Layer occupancy (ticks)
system.tol2bus.respLayer0.utilization             1.2                       # Layer utilization (%)
system.tol2bus.power_state.pwrStateResidencyTicks::UNDEFINED   2841706000                       # Cumulative time (in ticks) in various power states
system.voltage_domain.voltage                       1                       # Voltage in Volts
system.clk_domain.clock                          1000                       # Clock period in ticks
system.l2.demand_hits::.cpu.inst                19851                       # number of demand (read+write) hits
system.l2.demand_hits::.cpu.data                  374                       # number of demand (read+write) hits
system.l2.demand_hits::total                    20225                       # number of demand (read+write) hits
system.l2.overall_hits::.cpu.inst               19851                       # number of overall hits
system.l2.overall_hits::.cpu.data                 374                       # number of overall hits
system.l2.overall_hits::total                   20225                       # number of overall hits
system.l2.demand_misses::.cpu.inst               2105                       # number of demand (read+write) misses
system.l2.demand_misses::.cpu.data               1481                       # number of demand (read+write) misses
system.l2.demand_misses::total                   3586                       # number of demand (read+write) misses
system.l2.overall_misses::.cpu.inst              2105                       # number of overall misses
system.l2.overall_misses::.cpu.data              1481                       # number of overall misses
system.l2.overall_misses::total                  3586                       # number of overall misses
system.l2.demand_miss_latency::.cpu.inst    164843500                       # number of demand (read+write) miss cycles
system.l2.demand_miss_latency::.cpu.data    120019000                       # number of demand (read+write) miss cycles
system.l2.demand_miss_latency::total        284862500                       # number of demand (read+write) miss cycles
system.l2.overall_miss_latency::.cpu.inst    164843500                       # number of overall miss cycles
system.l2.overall_miss_latency::.cpu.data    120019000                       # number of overall miss cycles
system.l2.overall_miss_latency::total       284862500                       # number of overall miss cycles
system.l2.demand_accesses::.cpu.inst            21956                       # number of demand (read+write) accesses
system.l2.demand_accesses::.cpu.data             1855                       # number of demand (read+write) accesses
system.l2.demand_accesses::total                23811                       # number of demand (read+write) accesses
system.l2.overall_accesses::.cpu.inst           21956                       # number of overall (read+write) accesses
system.l2.overall_accesses::.cpu.data            1855                       # number of overall (read+write) accesses
system.l2.overall_accesses::total               23811                       # number of overall (read+write) accesses
system.l2.demand_miss_rate::.cpu.inst        0.095874                       # miss rate for demand accesses
system.l2.demand_miss_rate::.cpu.data        0.798383                       # miss rate for demand accesses
system.l2.demand_miss_rate::total            0.150603                       # miss rate for demand accesses
system.l2.overall_miss_rate::.cpu.inst       0.095874                       # miss rate for overall accesses
system.l2.overall_miss_rate::.cpu.data       0.798383                       # miss rate for overall accesses
system.l2.overall_miss_rate::total           0.150603                       # miss rate for overall accesses
system.l2.demand_avg_miss_latency::.cpu.inst 78310.451306                       # average overall miss latency
system.l2.demand_avg_miss_latency::.cpu.data 81039.162728                       # average overall miss latency
system.l2.demand_avg_miss_latency::total 79437.395427                       # average overall miss latency
system.l2.overall_avg_miss_latency::.cpu.inst 78310.451306                       # average overall miss latency
system.l2.overall_avg_miss_latency::.cpu.data 81039.162728                       # average overall miss latency
system.l2.overall_avg_miss_latency::total 79437.395427                       # average overall miss latency
system.l2.blocked_cycles::no_mshrs                  0                       # number of cycles access was blocked
system.l2.blocked_cycles::no_targets                0                       # number of cycles access was blocked
system.l2.blocked::no_mshrs                         0                       # number of cycles access was blocked
system.l2.blocked::no_targets                       0                       # number of cycles access was blocked
system.l2.avg_blocked_cycles::no_mshrs            nan                       # average number of cycles each access was blocked
system.l2.avg_blocked_cycles::no_targets          nan                       # average number of cycles each access was blocked
system.l2.demand_mshr_misses::.cpu.inst          2105                       # number of demand (read+write) MSHR misses
system.l2.demand_mshr_misses::.cpu.data          1481                       # number of demand (read+write) MSHR misses
system.l2.demand_mshr_misses::total              3586                       # number of demand (read+write) MSHR misses
system.l2.overall_mshr_misses::.cpu.inst         2105                       # number of overall MSHR misses
system.l2.overall_mshr_misses::.cpu.data         1481                       # number of overall MSHR misses
system.l2.overall_mshr_misses::total             3586                       # number of overall MSHR misses
system.l2.demand_mshr_miss_latency::.cpu.inst    143793500                       # number of demand (read+write) MSHR miss cycles
system.l2.demand_mshr_miss_latency::.cpu.data    105209000                       # number of demand (read+write) MSHR miss cycles
system.l2.demand_mshr_miss_latency::total    249002500                       # number of demand (read+write) MSHR miss cycles
system.l2.overall_mshr_miss_latency::.cpu.inst    143793500                       # number of overall MSHR miss cycles
system.l2.overall_mshr_miss_latency::.cpu.data    105209000                       # number of overall MSHR miss cycles
system.l2.overall_mshr_miss_latency::total    249002500                       # number of overall MSHR miss cycles
system.l2.demand_mshr_miss_rate::.cpu.inst     0.095874                       # mshr miss rate for demand accesses
system.l2.demand_mshr_miss_rate::.cpu.data     0.798383                       # mshr miss rate for demand accesses
system.l2.demand_mshr_miss_rate::total       0.150603                       # mshr miss rate for demand accesses
system.l2.overall_mshr_miss_rate::.cpu.inst     0.095874                       # mshr miss rate for overall accesses
system.l2.overall_mshr_miss_rate::.cpu.data     0.798383                       # mshr miss rate for overall accesses
system.l2.overall_mshr_miss_rate::total      0.150603                       # mshr miss rate for overall accesses
system.l2.demand_avg_mshr_miss_latency::.cpu.inst 68310.451306                       # average overall mshr miss latency
system.l2.demand_avg_mshr_miss_latency::.cpu.data 71039.162728                       # average overall mshr miss latency
system.l2.demand_avg_mshr_miss_latency::total 69437.395427                       # average overall mshr miss latency
system.l2.overall_avg_mshr_miss_latency::.cpu.inst 68310.451306                       # average overall mshr miss latency
system.l2.overall_avg_mshr_miss_latency::.cpu.data 71039.162728                       # average overall mshr miss latency
system.l2.overall_avg_mshr_miss_latency::total 69437.395427                       # average overall mshr miss latency
system.l2.replacements                              0                       # number of replacements
system.l2.WritebackDirty_hits::.writebacks          634                       # number of WritebackDirty hits
system.l2.WritebackDirty_hits::total              634                       # number of WritebackDirty hits
system.l2.WritebackDirty_accesses::.writebacks          634                       # number of WritebackDirty accesses(hits+misses)
system.l2.WritebackDirty_accesses::total          634                       # number of WritebackDirty accesses(hits+misses)
system.l2.WritebackClean_hits::.writebacks        20987                       # number of WritebackClean hits
system.l2.WritebackClean_hits::total            20987                       # number of WritebackClean hits
system.l2.WritebackClean_accesses::.writebacks        20987                       # number of WritebackClean accesses(hits+misses)
system.l2.WritebackClean_accesses::total        20987                       # number of WritebackClean accesses(hits+misses)
system.l2.UpgradeReq_hits::.cpu.data                5                       # number of UpgradeReq hits
system.l2.UpgradeReq_hits::total                    5                       # number of UpgradeReq hits
system.l2.UpgradeReq_accesses::.cpu.data            5                       # number of UpgradeReq accesses(hits+misses)
system.l2.UpgradeReq_accesses::total                5                       # number of UpgradeReq accesses(hits+misses)
system.l2.ReadExReq_hits::.cpu.data                63                       # number of ReadExReq hits
system.l2.ReadExReq_hits::total                    63                       # number of ReadExReq hits
system.l2.ReadExReq_misses::.cpu.data             526                       # number of ReadExReq misses
system.l2.ReadExReq_misses::total                 526                       # number of ReadExReq misses
system.l2.ReadExReq_miss_latency::.cpu.data     43034000                       # number of ReadExReq miss cycles
system.l2.ReadExReq_miss_latency::total      43034000                       # number of ReadExReq miss cycles
system.l2.ReadExReq_accesses::.cpu.data           589                       # number of ReadExReq accesses(hits+misses)
system.l2.ReadExReq_accesses::total               589                       # number of ReadExReq accesses(hits+misses)
system.l2.ReadExReq_miss_rate::.cpu.data     0.893039                       # miss rate for ReadExReq accesses
system.l2.ReadExReq_miss_rate::total         0.893039                       # miss rate for ReadExReq accesses
system.l2.ReadExReq_avg_miss_latency::.cpu.data 81813.688213                       # average ReadExReq miss latency
system.l2.ReadExReq_avg_miss_latency::total 81813.688213                       # average ReadExReq miss latency
system.l2.ReadExReq_mshr_misses::.cpu.data          526                       # number of ReadExReq MSHR misses
system.l2.ReadExReq_mshr_misses::total            526                       # number of ReadExReq MSHR misses
system.l2.ReadExReq_mshr_miss_latency::.cpu.data     37774000                       # number of ReadExReq MSHR miss cycles
system.l2.ReadExReq_mshr_miss_latency::total     37774000                       # number of ReadExReq MSHR miss cycles
system.l2.ReadExReq_mshr_miss_rate::.cpu.data     0.893039                       # mshr miss rate for ReadExReq accesses
system.l2.ReadExReq_mshr_miss_rate::total     0.893039                       # mshr miss rate for ReadExReq accesses
system.l2.ReadExReq_avg_mshr_miss_latency::.cpu.data 71813.688213                       # average ReadExReq mshr miss latency
system.l2.ReadExReq_avg_mshr_miss_latency::total 71813.688213                       # average ReadExReq mshr miss latency
system.l2.ReadCleanReq_hits::.cpu.inst          19851                       # number of ReadCleanReq hits
system.l2.ReadCleanReq_hits::total              19851                       # number of ReadCleanReq hits
system.l2.ReadCleanReq_misses::.cpu.inst         2105                       # number of ReadCleanReq misses
system.l2.ReadCleanReq_misses::total             2105                       # number of ReadCleanReq misses
system.l2.ReadCleanReq_miss_latency::.cpu.inst    164843500                       # number of ReadCleanReq miss cycles
system.l2.ReadCleanReq_miss_latency::total    164843500                       # number of ReadCleanReq miss cycles
system.l2.ReadCleanReq_accesses::.cpu.inst        21956                       # number of ReadCleanReq accesses(hits+misses)
system.l2.ReadCleanReq_accesses::total          21956                       # number of ReadCleanReq accesses(hits+misses)
system.l2.ReadCleanReq_miss_rate::.cpu.inst     0.095874                       # miss rate for ReadCleanReq accesses
system.l2.ReadCleanReq_miss_rate::total      0.095874                       # miss rate for ReadCleanReq accesses
system.l2.ReadCleanReq_avg_miss_latency::.cpu.inst 78310.451306                       # average ReadCleanReq miss latency
system.l2.ReadCleanReq_avg_miss_latency::total 78310.451306                       # average ReadCleanReq miss latency
system.l2.ReadCleanReq_mshr_misses::.cpu.inst         2105                       # number of ReadCleanReq MSHR misses
system.l2.ReadCleanReq_mshr_misses::total         2105                       # number of ReadCleanReq MSHR misses
system.l2.ReadCleanReq_mshr_miss_latency::.cpu.inst    143793500                       # number of ReadCleanReq MSHR miss cycles
system.l2.ReadCleanReq_mshr_miss_latency::total    143793500                       # number of ReadCleanReq MSHR miss cycles
system.l2.ReadCleanReq_mshr_miss_rate::.cpu.inst     0.095874                       # mshr miss rate for ReadCleanReq accesses
[...]
system.cpu.dcache.overall_miss_latency::.cpu.data    393911499                       # number of overall miss cycles
system.cpu.dcache.overall_miss_latency::total    393911499                       # number of overall miss cycles
system.cpu.dcache.demand_accesses::.cpu.data      2997007                       # number of demand (read+write) accesses
system.cpu.dcache.demand_accesses::total      2997007                       # number of demand (read+write) accesses
system.cpu.dcache.overall_accesses::.cpu.data      3008543                       # number of overall (read+write) accesses
system.cpu.dcache.overall_accesses::total      3008543                       # number of overall (read+write) accesses
system.cpu.dcache.demand_miss_rate::.cpu.data     0.002123                       # miss rate for demand accesses
system.cpu.dcache.demand_miss_rate::total     0.002123                       # miss rate for demand accesses
system.cpu.dcache.overall_miss_rate::.cpu.data     0.002124                       # miss rate for overall accesses
system.cpu.dcache.overall_miss_rate::total     0.002124                       # miss rate for overall accesses
system.cpu.dcache.demand_avg_miss_latency::.cpu.data 61896.841452                       # average overall miss latency
system.cpu.dcache.demand_avg_miss_latency::total 61896.841452                       # average overall miss latency
system.cpu.dcache.overall_avg_miss_latency::.cpu.data 61644.992019                       # average overall miss latency
system.cpu.dcache.overall_avg_miss_latency::total 61644.992019                       # average overall miss latency
system.cpu.dcache.blocked_cycles::no_mshrs           15                       # number of cycles access was blocked
system.cpu.dcache.blocked_cycles::no_targets          430                       # number of cycles access was blocked
system.cpu.dcache.blocked::no_mshrs                 2                       # number of cycles access was blocked
system.cpu.dcache.blocked::no_targets               5                       # number of cycles access was blocked
system.cpu.dcache.avg_blocked_cycles::no_mshrs     7.500000                       # average number of cycles each access was blocked
system.cpu.dcache.avg_blocked_cycles::no_targets           86                       # average number of cycles each access was blocked
system.cpu.dcache.writebacks::.writebacks          634                       # number of writebacks
system.cpu.dcache.writebacks::total               634                       # number of writebacks
system.cpu.dcache.demand_mshr_hits::.cpu.data         4370                       # number of demand (read+write) MSHR hits
system.cpu.dcache.demand_mshr_hits::total         4370                       # number of demand (read+write) MSHR hits
system.cpu.dcache.overall_mshr_hits::.cpu.data         4370                       # number of overall MSHR hits
system.cpu.dcache.overall_mshr_hits::total         4370                       # number of overall MSHR hits
system.cpu.dcache.demand_mshr_misses::.cpu.data         1994                       # number of demand (read+write) MSHR misses
system.cpu.dcache.demand_mshr_misses::total         1994                       # number of demand (read+write) MSHR misses
system.cpu.dcache.overall_mshr_misses::.cpu.data         2018                       # number of overall MSHR misses
system.cpu.dcache.overall_mshr_misses::total         2018                       # number of overall MSHR misses
system.cpu.dcache.demand_mshr_miss_latency::.cpu.data    129502999                       # number of demand (read+write) MSHR miss cycles
system.cpu.dcache.demand_mshr_miss_latency::total    129502999                       # number of demand (read+write) MSHR miss cycles
system.cpu.dcache.overall_mshr_miss_latency::.cpu.data    131679499                       # number of overall MSHR miss cycles
system.cpu.dcache.overall_mshr_miss_latency::total    131679499                       # number of overall MSHR miss cycles
system.cpu.dcache.demand_mshr_miss_rate::.cpu.data     0.000665                       # mshr miss rate for demand accesses
system.cpu.dcache.demand_mshr_miss_rate::total     0.000665                       # mshr miss rate for demand accesses
system.cpu.dcache.overall_mshr_miss_rate::.cpu.data     0.000671                       # mshr miss rate for overall accesses
system.cpu.dcache.overall_mshr_miss_rate::total     0.000671                       # mshr miss rate for overall accesses
system.cpu.dcache.demand_avg_mshr_miss_latency::.cpu.data 64946.338516                       # average overall mshr miss latency
system.cpu.dcache.demand_avg_mshr_miss_latency::total 64946.338516                       # average overall mshr miss latency
system.cpu.dcache.overall_avg_mshr_miss_latency::.cpu.data 65252.477205                       # average overall mshr miss latency
system.cpu.dcache.overall_avg_mshr_miss_latency::total 65252.477205                       # average overall mshr miss latency
system.cpu.dcache.replacements                   1045                       # number of replacements
system.cpu.dcache.ReadReq_hits::.cpu.data      1798106                       # number of ReadReq hits
system.cpu.dcache.ReadReq_hits::total         1798106                       # number of ReadReq hits
system.cpu.dcache.ReadReq_misses::.cpu.data         2607                       # number of ReadReq misses
system.cpu.dcache.ReadReq_misses::total          2607                       # number of ReadReq misses
system.cpu.dcache.ReadReq_miss_latency::.cpu.data    158088000                       # number of ReadReq miss cycles
system.cpu.dcache.ReadReq_miss_latency::total    158088000                       # number of ReadReq miss cycles
system.cpu.dcache.ReadReq_accesses::.cpu.data      1800713                       # number of ReadReq accesses(hits+misses)
system.cpu.dcache.ReadReq_accesses::total      1800713                       # number of ReadReq accesses(hits+misses)
system.cpu.dcache.ReadReq_miss_rate::.cpu.data     0.001448                       # miss rate for ReadReq accesses
system.cpu.dcache.ReadReq_miss_rate::total     0.001448                       # miss rate for ReadReq accesses
system.cpu.dcache.ReadReq_avg_miss_latency::.cpu.data 60639.815880                       # average ReadReq miss latency
system.cpu.dcache.ReadReq_avg_miss_latency::total 60639.815880                       # average ReadReq miss latency
system.cpu.dcache.ReadReq_mshr_hits::.cpu.data         1367                       # number of ReadReq MSHR hits
system.cpu.dcache.ReadReq_mshr_hits::total         1367                       # number of ReadReq MSHR hits
system.cpu.dcache.ReadReq_mshr_misses::.cpu.data         1240                       # number of ReadReq MSHR misses
system.cpu.dcache.ReadReq_mshr_misses::total         1240                       # number of ReadReq MSHR misses
system.cpu.dcache.ReadReq_mshr_miss_latency::.cpu.data     79592500                       # number of ReadReq MSHR miss cycles
system.cpu.dcache.ReadReq_mshr_miss_latency::total     79592500                       # number of ReadReq MSHR miss cycles
system.cpu.dcache.ReadReq_mshr_miss_rate::.cpu.data     0.000689                       # mshr miss rate for ReadReq accesses
system.cpu.dcache.ReadReq_mshr_miss_rate::total     0.000689                       # mshr miss rate for ReadReq accesses
system.cpu.dcache.ReadReq_avg_mshr_miss_latency::.cpu.data 64187.500000                       # average ReadReq mshr miss latency
system.cpu.dcache.ReadReq_avg_mshr_miss_latency::total 64187.500000                       # average ReadReq mshr miss latency
system.cpu.dcache.WriteReq_hits::.cpu.data      1191500                       # number of WriteReq hits
system.cpu.dcache.WriteReq_hits::total        1191500                       # number of WriteReq hits
system.cpu.dcache.WriteReq_misses::.cpu.data         3619                       # number of WriteReq misses
system.cpu.dcache.WriteReq_misses::total         3619                       # number of WriteReq misses
system.cpu.dcache.WriteReq_miss_latency::.cpu.data    231139000                       # number of WriteReq miss cycles
system.cpu.dcache.WriteReq_miss_latency::total    231139000                       # number of WriteReq miss cycles
system.cpu.dcache.WriteReq_accesses::.cpu.data      1195119                       # number of WriteReq accesses(hits+misses)
system.cpu.dcache.WriteReq_accesses::total      1195119                       # number of WriteReq accesses(hits+misses)
system.cpu.dcache.WriteReq_miss_rate::.cpu.data     0.003028                       # miss rate for WriteReq accesses
system.cpu.dcache.WriteReq_miss_rate::total     0.003028                       # miss rate for WriteReq accesses
system.cpu.dcache.WriteReq_avg_miss_latency::.cpu.data 63868.195634                       # average WriteReq miss latency
system.cpu.dcache.WriteReq_avg_miss_latency::total 63868.195634                       # average WriteReq miss latency
system.cpu.dcache.WriteReq_mshr_hits::.cpu.data         3003                       # number of WriteReq MSHR hits
system.cpu.dcache.WriteReq_mshr_hits::total         3003                       # number of WriteReq MSHR hits
system.cpu.dcache.WriteReq_mshr_misses::.cpu.data          616                       # number of WriteReq MSHR misses
system.cpu.dcache.WriteReq_mshr_misses::total          616                       # number of WriteReq MSHR misses
system.cpu.dcache.WriteReq_mshr_miss_latency::.cpu.data     45364000                       # number of WriteReq MSHR miss cycles
system.cpu.dcache.WriteReq_mshr_miss_latency::total     45364000                       # number of WriteReq MSHR miss cycles
system.cpu.dcache.WriteReq_mshr_miss_rate::.cpu.data     0.000515                       # mshr miss rate for WriteReq accesses
system.cpu.dcache.WriteReq_mshr_miss_rate::total     0.000515                       # mshr miss rate for WriteReq accesses
system.cpu.dcache.WriteReq_avg_mshr_miss_latency::.cpu.data 73642.857143                       # average WriteReq mshr miss latency
system.cpu.dcache.WriteReq_avg_mshr_miss_latency::total 73642.857143                       # average WriteReq mshr miss latency
system.cpu.dcache.SoftPFReq_hits::.cpu.data        11510                       # number of SoftPFReq hits
system.cpu.dcache.SoftPFReq_hits::total         11510                       # number of SoftPFReq hits
system.cpu.dcache.SoftPFReq_misses::.cpu.data           26                       # number of SoftPFReq misses
system.cpu.dcache.SoftPFReq_misses::total           26                       # number of SoftPFReq misses
system.cpu.dcache.SoftPFReq_accesses::.cpu.data        11536                       # number of SoftPFReq accesses(hits+misses)
system.cpu.dcache.SoftPFReq_accesses::total        11536                       # number of SoftPFReq accesses(hits+misses)
system.cpu.dcache.SoftPFReq_miss_rate::.cpu.data     0.002254                       # miss rate for SoftPFReq accesses
system.cpu.dcache.SoftPFReq_miss_rate::total     0.002254                       # miss rate for SoftPFReq accesses
system.cpu.dcache.SoftPFReq_mshr_misses::.cpu.data           24                       # number of SoftPFReq MSHR misses
system.cpu.dcache.SoftPFReq_mshr_misses::total           24                       # number of SoftPFReq MSHR misses
system.cpu.dcache.SoftPFReq_mshr_miss_latency::.cpu.data      2176500                       # number of SoftPFReq MSHR miss cycles
system.cpu.dcache.SoftPFReq_mshr_miss_latency::total      2176500                       # number of SoftPFReq MSHR miss cycles
system.cpu.dcache.SoftPFReq_mshr_miss_rate::.cpu.data     0.002080                       # mshr miss rate for SoftPFReq accesses
system.cpu.dcache.SoftPFReq_mshr_miss_rate::total     0.002080                       # mshr miss rate for SoftPFReq accesses
system.cpu.dcache.SoftPFReq_avg_mshr_miss_latency::.cpu.data 90687.500000                       # average SoftPFReq mshr miss latency
system.cpu.dcache.SoftPFReq_avg_mshr_miss_latency::total 90687.500000                       # average SoftPFReq mshr miss latency
system.cpu.dcache.WriteLineReq_hits::.cpu.data         1037                       # number of WriteLineReq hits
system.cpu.dcache.WriteLineReq_hits::total         1037                       # number of WriteLineReq hits
system.cpu.dcache.WriteLineReq_misses::.cpu.data          138                       # number of WriteLineReq misses
system.cpu.dcache.WriteLineReq_misses::total          138                       # number of WriteLineReq misses
system.cpu.dcache.WriteLineReq_miss_latency::.cpu.data      4684499                       # number of WriteLineReq miss cycles
system.cpu.dcache.WriteLineReq_miss_latency::total      4684499                       # number of WriteLineReq miss cycles
system.cpu.dcache.WriteLineReq_accesses::.cpu.data         1175                       # number of WriteLineReq accesses(hits+misses)
system.cpu.dcache.WriteLineReq_accesses::total         1175                       # number of WriteLineReq accesses(hits+misses)
system.cpu.dcache.WriteLineReq_miss_rate::.cpu.data     0.117447                       # miss rate for WriteLineReq accesses
system.cpu.dcache.WriteLineReq_miss_rate::total     0.117447                       # miss rate for WriteLineReq accesses
system.cpu.dcache.WriteLineReq_avg_miss_latency::.cpu.data 33945.644928                       # average WriteLineReq miss latency
system.cpu.dcache.WriteLineReq_avg_miss_latency::total 33945.644928                       # average WriteLineReq miss latency
system.cpu.dcache.WriteLineReq_mshr_misses::.cpu.data          138                       # number of WriteLineReq MSHR misses
system.cpu.dcache.WriteLineReq_mshr_misses::total          138                       # number of WriteLineReq MSHR misses
system.cpu.dcache.WriteLineReq_mshr_miss_latency::.cpu.data      4546499                       # number of WriteLineReq MSHR miss cycles
system.cpu.dcache.WriteLineReq_mshr_miss_latency::total      4546499                       # number of WriteLineReq MSHR miss cycles
system.cpu.dcache.WriteLineReq_mshr_miss_rate::.cpu.data     0.117447                       # mshr miss rate for WriteLineReq accesses
system.cpu.dcache.WriteLineReq_mshr_miss_rate::total     0.117447                       # mshr miss rate for WriteLineReq accesses
system.cpu.dcache.WriteLineReq_avg_mshr_miss_latency::.cpu.data 32945.644928                       # average WriteLineReq mshr miss latency
system.cpu.dcache.WriteLineReq_avg_mshr_miss_latency::total 32945.644928                       # average WriteLineReq mshr miss latency
system.cpu.dcache.LoadLockedReq_hits::.cpu.data         5830                       # number of LoadLockedReq hits
system.cpu.dcache.LoadLockedReq_hits::total         5830                       # number of LoadLockedReq hits
system.cpu.dcache.LoadLockedReq_misses::.cpu.data            2                       # number of LoadLockedReq misses
system.cpu.dcache.LoadLockedReq_misses::total            2                       # number of LoadLockedReq misses
system.cpu.dcache.LoadLockedReq_miss_latency::.cpu.data       457500                       # number of LoadLockedReq miss cycles
system.cpu.dcache.LoadLockedReq_miss_latency::total       457500                       # number of LoadLockedReq miss cycles
system.cpu.dcache.LoadLockedReq_accesses::.cpu.data         5832                       # number of LoadLockedReq accesses(hits+misses)
system.cpu.dcache.LoadLockedReq_accesses::total         5832                       # number of LoadLockedReq accesses(hits+misses)
system.cpu.dcache.LoadLockedReq_miss_rate::.cpu.data     0.000343                       # miss rate for LoadLockedReq accesses
system.cpu.dcache.LoadLockedReq_miss_rate::total     0.000343                       # miss rate for LoadLockedReq accesses
system.cpu.dcache.LoadLockedReq_avg_miss_latency::.cpu.data       228750                       # average LoadLockedReq miss latency
system.cpu.dcache.LoadLockedReq_avg_miss_latency::total       228750                       # average LoadLockedReq miss latency
system.cpu.dcache.LoadLockedReq_mshr_misses::.cpu.data            2                       # number of LoadLockedReq MSHR misses
system.cpu.dcache.LoadLockedReq_mshr_misses::total            2                       # number of LoadLockedReq MSHR misses
system.cpu.dcache.LoadLockedReq_mshr_miss_latency::.cpu.data       455500                       # number of LoadLockedReq MSHR miss cycles
system.cpu.dcache.LoadLockedReq_mshr_miss_latency::total       455500                       # number of LoadLockedReq MSHR miss cycles
system.cpu.dcache.LoadLockedReq_mshr_miss_rate::.cpu.data     0.000343                       # mshr miss rate for LoadLockedReq accesses
system.cpu.dcache.LoadLockedReq_mshr_miss_rate::total     0.000343                       # mshr miss rate for LoadLockedReq accesses
system.cpu.dcache.LoadLockedReq_avg_mshr_miss_latency::.cpu.data       227750                       # average LoadLockedReq mshr miss latency
system.cpu.dcache.LoadLockedReq_avg_mshr_miss_latency::total       227750                       # average LoadLockedReq mshr miss latency
system.cpu.dcache.StoreCondReq_hits::.cpu.data         5240                       # number of StoreCondReq hits
system.cpu.dcache.StoreCondReq_hits::total         5240                       # number of StoreCondReq hits
system.cpu.dcache.StoreCondReq_accesses::.cpu.data         5240                       # number of StoreCondReq accesses(hits+misses)
system.cpu.dcache.StoreCondReq_accesses::total         5240                       # number of StoreCondReq accesses(hits+misses)
system.cpu.dcache.power_state.pwrStateResidencyTicks::UNDEFINED   2841706000                       # Cumulative time (in ticks) in various power states
system.cpu.dcache.tags.tagsinuse           921.440899                       # Cycle average of tags in use
system.cpu.dcache.tags.total_refs             3015282                       # Total number of references to valid blocks.
system.cpu.dcache.tags.sampled_refs              2012                       # Sample count of references to valid blocks.
system.cpu.dcache.tags.avg_refs           1498.649105                       # Average number of references to valid blocks.
system.cpu.dcache.tags.warmup_cycle            176500                       # Cycle when the warmup percentage was hit.
system.cpu.dcache.tags.occ_blocks::.cpu.data   921.440899                       # Average occupied blocks per requestor
system.cpu.dcache.tags.occ_percent::.cpu.data     0.899845                       # Average percentage of cache occupancy
system.cpu.dcache.tags.occ_percent::total     0.899845                       # Average percentage of cache occupancy
system.cpu.dcache.tags.occ_task_id_blocks::1024          967                       # Occupied blocks per task id
system.cpu.dcache.tags.age_task_id_blocks_1024::1            3                       # Occupied blocks per task id
system.cpu.dcache.tags.age_task_id_blocks_1024::2           14                       # Occupied blocks per task id
system.cpu.dcache.tags.age_task_id_blocks_1024::3          950                       # Occupied blocks per task id
system.cpu.dcache.tags.occ_task_id_percent::1024     0.944336                       # Percentage of cache occupancy per task id
system.cpu.dcache.tags.tag_accesses           6041242                       # Number of tag accesses
system.cpu.dcache.tags.data_accesses          6041242                       # Number of data accesses
system.cpu.dcache.tags.power_state.pwrStateResidencyTicks::UNDEFINED   2841706000                       # Cumulative time (in ticks) in various power states
system.cpu.power_state.pwrStateResidencyTicks::ON   2841706000                       # Cumulative time (in ticks) in various power states

---------- End Simulation Statistics   ----------
