
---------- Begin Simulation Statistics ----------
final_tick                                 1757549500                       # Number of ticks from beginning of simulation (restored from checkpoints and never reset)
host_inst_rate                                 194893                       # Simulator instruction rate (inst/s)
host_mem_usage                                 867320                       # Number of bytes of host memory used
host_op_rate                                   224969                       # Simulator op (including micro ops) rate (op/s)
host_seconds                                    14.54                       # Real time elapsed on the host
host_tick_rate                              120902644                       # Simulator tick rate (ticks/s)
sim_freq                                 1000000000000                       # Frequency of simulated ticks
sim_insts                                     2833100                       # Number of instructions simulated
sim_ops                                       3270344                       # Number of ops (including micro ops) simulated
sim_seconds                                  0.001758                       # Number of seconds simulated
sim_ticks                                  1757549500                       # Number of ticks simulated
system.cpu.branchPred.BTBCorrect                    0                       # Number of correct BTB predictions (this stat may not work properly.
system.cpu.branchPred.BTBHitPct             98.531820                       # BTB Hit Percentage
system.cpu.branchPred.BTBHits                  300257                       # Number of BTB hits
system.cpu.branchPred.BTBLookups               304731                       # Number of BTB lookups
system.cpu.branchPred.RASInCorrect                  4                       # Number of incorrect RAS predictions.
system.cpu.branchPred.condIncorrect              7301                       # Number of conditional branches incorrect
system.cpu.branchPred.condPredicted            531493                       # Number of conditional branches predicted
system.cpu.branchPred.indirectHits               1213                       # Number of indirect target hits.
system.cpu.branchPred.indirectLookups            1621                       # Number of indirect predictor lookups.
system.cpu.branchPred.indirectMisses              408                       # Number of indirect misses.
system.cpu.branchPred.lookups                  656804                       # Number of BP lookups
system.cpu.branchPred.usedRAS                   37059                       # Number of times the RAS was used to get a target.
system.cpu.branchPredindirectMispredicted          148                       # Number of mispredicted indirect branches.
system.cpu.cc_regfile_reads                    987927                       # number of cc regfile reads
system.cpu.cc_regfile_writes                   981773                       # number of cc regfile writes
system.cpu.commit.amos                              0                       # Number of atomic instructions committed
system.cpu.commit.branchMispredicts              5889                       # The number of times a branch was mispredicted
system.cpu.commit.branches                     559313                       # Number of branches committed
system.cpu.commit.bw_lim_events                162182                       # number cycles where commit BW limit reached
system.cpu.commit.commitNonSpecStalls             388                       # The number of times commit has been forced to stall to communicate backwards
system.cpu.commit.commitSquashedInsts          271615                       # The number of squashed insts skipped by commit
system.cpu.commit.committedInsts              2845009                       # Number of instructions committed
system.cpu.commit.committedOps                3282253                       # Number of ops (including micro ops) committed
system.cpu.commit.committed_per_cycle::samples      3237256                       # Number of insts commited each cycle
system.cpu.commit.committed_per_cycle::mean     1.013900                       # Number of insts commited each cycle
system.cpu.commit.committed_per_cycle::stdev     2.137253                       # Number of insts commited each cycle
system.cpu.commit.committed_per_cycle::underflows            0      0.00%      0.00% # Number of insts commited each cycle
system.cpu.commit.committed_per_cycle::0      2298003     70.99%     70.99% # Number of insts commited each cycle
system.cpu.commit.committed_per_cycle::1       334156     10.32%     81.31% # Number of insts commited each cycle
system.cpu.commit.committed_per_cycle::2       139263      4.30%     85.61% # Number of insts commited each cycle
system.cpu.commit.committed_per_cycle::3       112645      3.48%     89.09% # Number of insts commited each cycle
system.cpu.commit.committed_per_cycle::4        58162      1.80%     90.89% # Number of insts commited each cycle
system.cpu.commit.committed_per_cycle::5        29744      0.92%     91.81% # Number of insts commited each cycle
system.cpu.commit.committed_per_cycle::6        68895      2.13%     93.93% # Number of insts commited each cycle
system.cpu.commit.committed_per_cycle::7        34206      1.06%     94.99% # Number of insts commited each cycle
system.cpu.commit.committed_per_cycle::8       162182      5.01%    100.00% # Number of insts commited each cycle
system.cpu.commit.committed_per_cycle::overflows            0      0.00%    100.00% # Number of insts commited each cycle
system.cpu.commit.committed_per_cycle::min_value            0                       # Number of insts commited each cycle
system.cpu.commit.committed_per_cycle::max_value            8                       # Number of insts commited each cycle
system.cpu.commit.committed_per_cycle::total      3237256                       # Number of insts commited each cycle
system.cpu.commit.fp_insts                          0                       # Number of committed floating point instructions.
system.cpu.commit.function_calls                29833                       # Number of function calls committed.
system.cpu.commit.int_insts                   2980509                       # Number of committed integer instructions.
system.cpu.commit.loads                        448105                       # Number of loads committed
system.cpu.commit.membars                         278                       # Number of memory barriers committed
system.cpu.commit.op_class_0::No_OpClass           38      0.00%      0.00% # Class of committed instruction
system.cpu.commit.op_class_0::IntAlu          2375636     72.38%     72.38% # Class of committed instruction
system.cpu.commit.op_class_0::IntMult           17827      0.54%     72.92% # Class of committed instruction
system.cpu.commit.op_class_0::IntDiv              512      0.02%     72.94% # Class of committed instruction
system.cpu.commit.op_class_0::FloatAdd            625      0.02%     72.96% # Class of committed instruction
system.cpu.commit.op_class_0::FloatCmp            137      0.00%     72.96% # Class of committed instruction
system.cpu.commit.op_class_0::FloatCvt           1604      0.05%     73.01% # Class of committed instruction
system.cpu.commit.op_class_0::FloatMult           946      0.03%     73.04% # Class of committed instruction
system.cpu.commit.op_class_0::FloatMultAcc         1506      0.05%     73.08% # Class of committed instruction
system.cpu.commit.op_class_0::FloatDiv            628      0.02%     73.10% # Class of committed instruction
system.cpu.commit.op_class_0::FloatMisc          1211      0.04%     73.14% # Class of committed instruction
system.cpu.commit.op_class_0::FloatSqrt             0      0.00%     73.14% # Class of committed instruction
system.cpu.commit.op_class_0::SimdAdd              98      0.00%     73.14% # Class of committed instruction
system.cpu.commit.op_class_0::SimdAddAcc            0      0.00%     73.14% # Class of committed instruction
system.cpu.commit.op_class_0::SimdAlu             162      0.00%     73.15% # Class of committed instruction
system.cpu.commit.op_class_0::SimdCmp             152      0.00%     73.15% # Class of committed instruction
system.cpu.commit.op_class_0::SimdCvt               0      0.00%     73.15% # Class of committed instruction
system.cpu.commit.op_class_0::SimdMisc            754      0.02%     73.18% # Class of committed instruction
system.cpu.commit.op_class_0::SimdMult              0      0.00%     73.18% # Class of committed instruction
system.cpu.commit.op_class_0::SimdMultAcc            0      0.00%     73.18% # Class of committed instruction
system.cpu.commit.op_class_0::SimdShift             0      0.00%     73.18% # Class of committed instruction
system.cpu.commit.op_class_0::SimdShiftAcc            0      0.00%     73.18% # Class of committed instruction
system.cpu.commit.op_class_0::SimdDiv               0      0.00%     73.18% # Class of committed instruction
system.cpu.commit.op_class_0::SimdSqrt              0      0.00%     73.18% # Class of committed instruction
system.cpu.commit.op_class_0::SimdFloatAdd            0      0.00%     73.18% # Class of committed instruction
system.cpu.commit.op_class_0::SimdFloatAlu            0      0.00%     73.18% # Class of committed instruction
system.cpu.commit.op_class_0::SimdFloatCmp            0      0.00%     73.18% # Class of committed instruction
system.cpu.commit.op_class_0::SimdFloatCvt            0      0.00%     73.18% # Class of committed instruction
system.cpu.commit.op_class_0::SimdFloatDiv            0      0.00%     73.18% # Class of committed instruction
system.cpu.commit.op_class_0::SimdFloatMisc            0      0.00%     73.18% # Class of committed instruction
system.cpu.commit.op_class_0::SimdFloatMult            0      0.00%     73.18% # Class of committed instruction
system.cpu.commit.op_class_0::SimdFloatMultAcc            0      0.00%     73.18% # Class of committed instruction
system.cpu.commit.op_class_0::SimdFloatSqrt            0      0.00%     73.18% # Class of committed instruction
system.cpu.commit.op_class_0::SimdReduceAdd            0      0.00%     73.18% # Class of committed instruction
system.cpu.commit.op_class_0::SimdReduceAlu            0      0.00%     73.18% # Class of committed instruction
system.cpu.commit.op_class_0::SimdReduceCmp            0      0.00%     73.18% # Class of committed instruction
system.cpu.commit.op_class_0::SimdFloatReduceAdd            0      0.00%     73.18% # Class of committed instruction
system.cpu.commit.op_class_0::SimdFloatReduceCmp            0      0.00%     73.18% # Class of committed instruction
system.cpu.commit.op_class_0::SimdAes               0      0.00%     73.18% # Class of committed instruction
system.cpu.commit.op_class_0::SimdAesMix            0      0.00%     73.18% # Class of committed instruction
system.cpu.commit.op_class_0::SimdSha1Hash            0      0.00%     73.18% # Class of committed instruction
system.cpu.commit.op_class_0::SimdSha1Hash2            0      0.00%     73.18% # Class of committed instruction
system.cpu.commit.op_class_0::SimdSha256Hash            0      0.00%     73.18% # Class of committed instruction
system.cpu.commit.op_class_0::SimdSha256Hash2            0      0.00%     73.18% # Class of committed instruction
system.cpu.commit.op_class_0::SimdShaSigma2            0      0.00%     73.18% # Class of committed instruction
system.cpu.commit.op_class_0::SimdShaSigma3            0      0.00%     73.18% # Class of committed instruction
system.cpu.commit.op_class_0::SimdPredAlu            0      0.00%     73.18% # Class of committed instruction
system.cpu.commit.op_class_0::MemRead          448105     13.65%     86.83% # Class of committed instruction
system.cpu.commit.op_class_0::MemWrite         432312     13.17%    100.00% # Class of committed instruction
system.cpu.commit.op_class_0::FloatMemRead            0      0.00%    100.00% # Class of committed instruction
system.cpu.commit.op_class_0::FloatMemWrite            0      0.00%    100.00% # Class of committed instruction
system.cpu.commit.op_class_0::IprAccess             0      0.00%    100.00% # Class of committed instruction
system.cpu.commit.op_class_0::InstPrefetch            0      0.00%    100.00% # Class of committed instruction
system.cpu.commit.op_class_0::total           3282253                       # Class of committed instruction
system.cpu.commit.refs                         880417                       # Number of memory references committed
system.cpu.commit.swp_count                         0                       # Number of s/w prefetches committed
system.cpu.commit.vec_insts                     29063                       # Number of committed Vector instructions.
system.cpu.committedInsts                     2833100                       # Number of Instructions Simulated
system.cpu.committedOps                       3270344                       # Number of Ops (including micro ops) Simulated
system.cpu.cpi                               1.240726                       # CPI: Cycles Per Instruction
system.cpu.cpi_total                         1.240726                       # CPI: Total CPI of All Threads
system.cpu.decode.BlockedCycles               1374561                       # Number of cycles decode is blocked
system.cpu.decode.BranchMispred                  1445                       # Number of times decode detected a branch misprediction
system.cpu.decode.BranchResolved               291486                       # Number of times decode resolved a branch
system.cpu.decode.DecodedInsts                3624665                       # Number of instructions handled by decode
system.cpu.decode.IdleCycles                  1281425                       # Number of cycles decode is idle
system.cpu.decode.RunCycles                    560374                       # Number of cycles decode is running
system.cpu.decode.SquashCycles                   8853                       # Number of cycles decode is squashing
system.cpu.decode.SquashedInsts                  4622                       # Number of squashed instructions handled by decode
system.cpu.decode.UnblockCycles                 51215                       # Number of cycles decode is unblocking
system.cpu.dtb.accesses                             0                       # DTB accesses
system.cpu.dtb.align_faults                         0                       # Number of TLB faults due to alignment restrictions
system.cpu.dtb.domain_faults                        0                       # Number of TLB faults due to domain restrictions
system.cpu.dtb.flush_entries                        0                       # Number of entries that have been flushed from TLB
system.cpu.dtb.flush_tlb                            0                       # Number of times complete TLB was flushed
system.cpu.dtb.flush_tlb_asid                       0                       # Number of times TLB was flushed by ASID
system.cpu.dtb.flush_tlb_mva                        0                       # Number of times TLB was flushed by MVA
system.cpu.dtb.flush_tlb_mva_asid                   0                       # Number of times TLB was flushed by MVA & ASID
system.cpu.dtb.hits                                 0                       # DTB hits
system.cpu.dtb.inst_accesses                        0                       # ITB inst accesses
system.cpu.dtb.inst_hits                            0                       # ITB inst hits
system.cpu.dtb.inst_misses                          0                       # ITB inst misses
system.cpu.dtb.misses                               0                       # DTB misses
system.cpu.dtb.perms_faults                         0                       # Number of TLB faults due to permissions restrictions
system.cpu.dtb.prefetch_faults                      0                       # Number of TLB faults due to prefetch
system.cpu.dtb.read_accesses                        0                       # DTB read accesses
system.cpu.dtb.read_hits                            0                       # DTB read hits
system.cpu.dtb.read_misses                          0                       # DTB read misses
system.cpu.dtb.stage2_mmu.stage2_tlb.accesses            0                       # DTB accesses
system.cpu.dtb.stage2_mmu.stage2_tlb.align_faults            0                       # Number of TLB faults due to alignment restrictions
system.cpu.dtb.stage2_mmu.stage2_tlb.domain_faults            0                       # Number of TLB faults due to domain restrictions
system.cpu.dtb.stage2_mmu.stage2_tlb.flush_entries            0                       # Number of entries that have been flushed from TLB
system.cpu.dtb.stage2_mmu.stage2_tlb.flush_tlb            0                       # Number of times complete TLB was flushed
system.cpu.dtb.stage2_mmu.stage2_tlb.flush_tlb_asid            0                       # Number of times TLB was flushed by ASID
system.cpu.dtb.stage2_mmu.stage2_tlb.flush_tlb_mva            0                       # Number of times TLB was flushed by MVA
system.cpu.dtb.stage2_mmu.stage2_tlb.flush_tlb_mva_asid            0                       # Number of times TLB was flushed by MVA & ASID
system.cpu.dtb.stage2_mmu.stage2_tlb.hits            0                       # DTB hits
system.cpu.dtb.stage2_mmu.stage2_tlb.inst_accesses            0                       # ITB inst accesses
system.cpu.dtb.stage2_mmu.stage2_tlb.inst_hits            0                       # ITB inst hits
system.cpu.dtb.stage2_mmu.stage2_tlb.inst_misses            0                       # ITB inst misses
system.cpu.dtb.stage2_mmu.stage2_tlb.misses            0                       # DTB misses
system.cpu.dtb.stage2_mmu.stage2_tlb.perms_faults            0                       # Number of TLB faults due to permissions restrictions
system.cpu.dtb.stage2_mmu.stage2_tlb.prefetch_faults            0                       # Number of TLB faults due to prefetch
system.cpu.dtb.stage2_mmu.stage2_tlb.read_accesses            0                       # DTB read accesses
system.cpu.dtb.stage2_mmu.stage2_tlb.read_hits            0                       # DTB read hits
system.cpu.dtb.stage2_mmu.stage2_tlb.read_misses            0                       # DTB read misses
system.cpu.dtb.stage2_mmu.stage2_tlb.walker.walkRequestOrigin_Requested::Data            0                       # Table walker requests started/completed, data/inst
system.cpu.dtb.stage2_mmu.stage2_tlb.walker.walkRequestOrigin_Requested::Inst            0                       # Table walker requests started/completed, data/inst
system.cpu.dtb.stage2_mmu.stage2_tlb.walker.walkRequestOrigin_Requested::total            0                       # Table walker requests started/completed, data/inst
system.cpu.dtb.stage2_mmu.stage2_tlb.walker.walkRequestOrigin_Completed::Data            0                       # Table walker requests started/completed, data/inst
system.cpu.dtb.stage2_mmu.stage2_tlb.walker.walkRequestOrigin_Completed::Inst            0                       # Table walker requests started/completed, data/inst
system.cpu.dtb.stage2_mmu.stage2_tlb.walker.walkRequestOrigin_Completed::total            0                       # Table walker requests started/completed, data/inst
system.cpu.dtb.stage2_mmu.stage2_tlb.walker.walkRequestOrigin::total            0                       # Table walker requests started/completed, data/inst
system.cpu.dtb.stage2_mmu.stage2_tlb.walker.walks            0                       # Table walker walks requested
system.cpu.dtb.stage2_mmu.stage2_tlb.write_accesses            0                       # DTB write accesses
system.cpu.dtb.stage2_mmu.stage2_tlb.write_hits            0                       # DTB write hits
system.cpu.dtb.stage2_mmu.stage2_tlb.write_misses            0                       # DTB write misses
system.cpu.dtb.walker.walkRequestOrigin_Requested::Data            0                       # Table walker requests started/completed, data/inst
system.cpu.dtb.walker.walkRequestOrigin_Requested::Inst            0                       # Table walker requests started/completed, data/inst
system.cpu.dtb.walker.walkRequestOrigin_Requested::total            0                       # Table walker requests started/completed, data/inst
system.cpu.dtb.walker.walkRequestOrigin_Completed::Data            0                       # Table walker requests started/completed, data/inst
system.cpu.dtb.walker.walkRequestOrigin_Completed::Inst            0                       # Table walker requests started/completed, data/inst
system.cpu.dtb.walker.walkRequestOrigin_Completed::total            0                       # Table walker requests started/completed, data/inst
system.cpu.dtb.walker.walkRequestOrigin::total            0                       # Table walker requests started/completed, data/inst
system.cpu.dtb.walker.walks                         0                       # Table walker walks requested
system.cpu.dtb.write_accesses                       0                       # DTB write accesses
system.cpu.dtb.write_hits                           0                       # DTB write hits
system.cpu.dtb.write_misses                         0                       # DTB write misses
system.cpu.fetch.Branches                      656804                       # Number of branches that fetch encountered
system.cpu.fetch.CacheLines                    443117                       # Number of cache lines fetched
system.cpu.fetch.Cycles                       1669157                       # Number of cycles fetch has run and was not squashing or blocked
system.cpu.fetch.IcacheSquashes                  5477                       # Number of outstanding Icache misses that were squashed
system.cpu.fetch.IcacheWaitRetryStallCycles           53                       # Number of stall cycles due to full MSHR
system.cpu.fetch.Insts                        3267601                       # Number of instructions fetch has processed
system.cpu.fetch.MiscStallCycles                   21                       # Number of cycles fetch has spent waiting on interrupts, or bad addresses, or out of MSHRs
system.cpu.fetch.PendingTrapStallCycles           102                       # Number of stall cycles due to pending traps
system.cpu.fetch.SquashCycles                   20564                       # Number of cycles fetch has spent squashing
system.cpu.fetch.branchRate                  0.186852                       # Number of branch fetches per cycle
system.cpu.fetch.icacheStallCycles            1596813                       # Number of cycles fetch is stalled on an Icache miss
system.cpu.fetch.predictedBranches             338529                       # Number of branches that fetch has predicted taken
system.cpu.fetch.rate                        0.929590                       # Number of inst fetches per cycle
system.cpu.fetch.rateDist::samples            3276428                       # Number of instructions fetched each cycle (Total)
system.cpu.fetch.rateDist::mean              1.157000                       # Number of instructions fetched each cycle (Total)
system.cpu.fetch.rateDist::stdev             2.489061                       # Number of instructions fetched each cycle (Total)
system.cpu.fetch.rateDist::underflows               0      0.00%      0.00% # Number of instructions fetched each cycle (Total)
system.cpu.fetch.rateDist::0                  2571572     78.49%     78.49% # Number of instructions fetched each cycle (Total)
system.cpu.fetch.rateDist::1                    58206      1.78%     80.26% # Number of instructions fetched each cycle (Total)
system.cpu.fetch.rateDist::2                    75880      2.32%     82.58% # Number of instructions fetched each cycle (Total)
system.cpu.fetch.rateDist::3                    44820      1.37%     83.95% # Number of instructions fetched each cycle (Total)
system.cpu.fetch.rateDist::4                    92116      2.81%     86.76% # Number of instructions fetched each cycle (Total)
system.cpu.fetch.rateDist::5                    81922      2.50%     89.26% # Number of instructions fetched each cycle (Total)
system.cpu.fetch.rateDist::6                    40009      1.22%     90.48% # Number of instructions fetched each cycle (Total)
system.cpu.fetch.rateDist::7                    66952      2.04%     92.52% # Number of instructions fetched each cycle (Total)
system.cpu.fetch.rateDist::8                   244951      7.48%    100.00% # Number of instructions fetched each cycle (Total)
system.cpu.fetch.rateDist::overflows                0      0.00%    100.00% # Number of instructions fetched each cycle (Total)
system.cpu.fetch.rateDist::min_value                0                       # Number of instructions fetched each cycle (Total)
system.cpu.fetch.rateDist::max_value                8                       # Number of instructions fetched each cycle (Total)
system.cpu.fetch.rateDist::total              3276428                       # Number of instructions fetched each cycle (Total)
system.cpu.idleCycles                          238672                       # Total number of cycles that the CPU has spent unscheduled due to idling
system.cpu.iew.branchMispredicts                 6556                       # Number of branch mispredicts detected at execute
system.cpu.iew.exec_branches                   606290                       # Number of branches executed
system.cpu.iew.exec_nop                         12190                       # number of nop insts executed
system.cpu.iew.exec_rate                     0.998669                       # Inst execution rate
system.cpu.iew.exec_refs                       965080                       # number of memory reference insts executed
system.cpu.iew.exec_stores                     464682                       # Number of stores executed
system.cpu.iew.exec_swp                             0                       # number of swp insts executed
system.cpu.iew.iewBlockCycles                   41268                       # Number of cycles IEW is blocking
system.cpu.iew.iewDispLoadInsts                503808                       # Number of dispatched load instructions
system.cpu.iew.iewDispNonSpecInsts                534                       # Number of dispatched non-speculative instructions
system.cpu.iew.iewDispSquashedInsts              6424                       # Number of squashed instructions skipped by dispatch
system.cpu.iew.iewDispStoreInsts               470985                       # Number of dispatched store instructions
system.cpu.iew.iewDispatchedInsts             3560178                       # Number of instructions dispatched to IQ
system.cpu.iew.iewExecLoadInsts                500398                       # Number of load instructions executed
system.cpu.iew.iewExecSquashedInsts             12202                       # Number of squashed instructions skipped in execute
system.cpu.iew.iewExecutedInsts               3510422                       # Number of executed instructions
system.cpu.iew.iewIQFullEvents                    129                       # Number of times the IQ has become full, causing a stall
system.cpu.iew.iewIdleCycles                        0                       # Number of cycles IEW is idle
system.cpu.iew.iewLSQFullEvents                 28913                       # Number of times the LSQ has become full, causing a stall
system.cpu.iew.iewSquashCycles                   8853                       # Number of cycles IEW is squashing
system.cpu.iew.iewUnblockCycles                 29190                       # Number of cycles IEW is unblocking
system.cpu.iew.lsq.thread0.blockedLoads             0                       # Number of blocked loads due to partial load-store forwarding
system.cpu.iew.lsq.thread0.cacheBlocked         13807                       # Number of times an access to memory failed due to the cache being blocked
system.cpu.iew.lsq.thread0.forwLoads            14672                       # Number of loads that had data forwarded from stores
system.cpu.iew.lsq.thread0.ignoredResponses           10                       # Number of memory responses ignored because the instruction is squashed
system.cpu.iew.lsq.thread0.invAddrLoads             0                       # Number of loads ignored due to an invalid address
system.cpu.iew.lsq.thread0.invAddrSwpfs             0                       # Number of software prefetches ignored due to an invalid address
system.cpu.iew.lsq.thread0.memOrderViolation           33                       # Number of memory ordering violations
system.cpu.iew.lsq.thread0.rescheduledLoads          385                       # Number of loads that were rescheduled
system.cpu.iew.lsq.thread0.squashedLoads        55703                       # Number of loads squashed
system.cpu.iew.lsq.thread0.squashedStores        38673                       # Number of stores squashed
system.cpu.iew.memOrderViolationEvents             33                       # Number of memory order violations
system.cpu.iew.predictedNotTakenIncorrect         3789                       # Number of branches that were predicted not taken incorrectly
system.cpu.iew.predictedTakenIncorrect           2767                       # Number of branches that were predicted taken incorrectly
system.cpu.iew.wb_consumers                   3185898                       # num instructions consuming a value
system.cpu.iew.wb_count                       3490539                       # cumulative count of insts written-back
system.cpu.iew.wb_fanout                     0.616774                       # average fanout of values written-back
system.cpu.iew.wb_producers                   1964979                       # num instructions producing a value
system.cpu.iew.wb_rate                       0.993013                       # insts written-back per cycle
system.cpu.iew.wb_sent                        3502137                       # cumulative count of insts sent to commit
system.cpu.int_regfile_reads                  3977433                       # number of integer regfile reads
system.cpu.int_regfile_writes                 2548176                       # number of integer regfile writes
system.cpu.ipc                               0.805980                       # IPC: Instructions Per Cycle
system.cpu.ipc_total                         0.805980                       # IPC: Total IPC of All Threads
system.cpu.iq.FU_type_0::No_OpClass                59      0.00%      0.00% # Type of FU issued
system.cpu.iq.FU_type_0::IntAlu               2523098     71.63%     71.63% # Type of FU issued
system.cpu.iq.FU_type_0::IntMult                18914      0.54%     72.16% # Type of FU issued
system.cpu.iq.FU_type_0::IntDiv                   607      0.02%     72.18% # Type of FU issued
system.cpu.iq.FU_type_0::FloatAdd                 633      0.02%     72.20% # Type of FU issued
system.cpu.iq.FU_type_0::FloatCmp                 137      0.00%     72.20% # Type of FU issued
system.cpu.iq.FU_type_0::FloatCvt                1994      0.06%     72.26% # Type of FU issued
system.cpu.iq.FU_type_0::FloatMult               1038      0.03%     72.29% # Type of FU issued
system.cpu.iq.FU_type_0::FloatMultAcc            1506      0.04%     72.33% # Type of FU issued
system.cpu.iq.FU_type_0::FloatDiv                 810      0.02%     72.36% # Type of FU issued
system.cpu.iq.FU_type_0::FloatMisc               1614      0.05%     72.40% # Type of FU issued
system.cpu.iq.FU_type_0::FloatSqrt                  0      0.00%     72.40% # Type of FU issued
system.cpu.iq.FU_type_0::SimdAdd                  109      0.00%     72.40% # Type of FU issued
system.cpu.iq.FU_type_0::SimdAddAcc                 0      0.00%     72.40% # Type of FU issued
system.cpu.iq.FU_type_0::SimdAlu                  183      0.01%     72.41% # Type of FU issued
system.cpu.iq.FU_type_0::SimdCmp                  168      0.00%     72.41% # Type of FU issued
system.cpu.iq.FU_type_0::SimdCvt                    0      0.00%     72.41% # Type of FU issued
system.cpu.iq.FU_type_0::SimdMisc                 829      0.02%     72.44% # Type of FU issued
system.cpu.iq.FU_type_0::SimdMult                   0      0.00%     72.44% # Type of FU issued
system.cpu.iq.FU_type_0::SimdMultAcc                0      0.00%     72.44% # Type of FU issued
system.cpu.iq.FU_type_0::SimdShift                  0      0.00%     72.44% # Type of FU issued
system.cpu.iq.FU_type_0::SimdShiftAcc               0      0.00%     72.44% # Type of FU issued
system.cpu.iq.FU_type_0::SimdDiv                    0      0.00%     72.44% # Type of FU issued
system.cpu.iq.FU_type_0::SimdSqrt                   0      0.00%     72.44% # Type of FU issued
system.cpu.iq.FU_type_0::SimdFloatAdd               0      0.00%     72.44% # Type of FU issued
system.cpu.iq.FU_type_0::SimdFloatAlu               0      0.00%     72.44% # Type of FU issued
system.cpu.iq.FU_type_0::SimdFloatCmp               0      0.00%     72.44% # Type of FU issued
system.cpu.iq.FU_type_0::SimdFloatCvt               0      0.00%     72.44% # Type of FU issued
system.cpu.iq.FU_type_0::SimdFloatDiv               0      0.00%     72.44% # Type of FU issued
system.cpu.iq.FU_type_0::SimdFloatMisc              0      0.00%     72.44% # Type of FU issued
system.cpu.iq.FU_type_0::SimdFloatMult              0      0.00%     72.44% # Type of FU issued
system.cpu.iq.FU_type_0::SimdFloatMultAcc            0      0.00%     72.44% # Type of FU issued
system.cpu.iq.FU_type_0::SimdFloatSqrt              0      0.00%     72.44% # Type of FU issued
system.cpu.iq.FU_type_0::SimdReduceAdd              0      0.00%     72.44% # Type of FU issued
system.cpu.iq.FU_type_0::SimdReduceAlu              0      0.00%     72.44% # Type of FU issued
system.cpu.iq.FU_type_0::SimdReduceCmp              0      0.00%     72.44% # Type of FU issued
system.cpu.iq.FU_type_0::SimdFloatReduceAdd            0      0.00%     72.44% # Type of FU issued
system.cpu.iq.FU_type_0::SimdFloatReduceCmp            0      0.00%     72.44% # Type of FU issued
system.cpu.iq.FU_type_0::SimdAes                    0      0.00%     72.44% # Type of FU issued
system.cpu.iq.FU_type_0::SimdAesMix                 0      0.00%     72.44% # Type of FU issued
system.cpu.iq.FU_type_0::SimdSha1Hash               0      0.00%     72.44% # Type of FU issued
system.cpu.iq.FU_type_0::SimdSha1Hash2              0      0.00%     72.44% # Type of FU issued
system.cpu.iq.FU_type_0::SimdSha256Hash             0      0.00%     72.44% # Type of FU issued
system.cpu.iq.FU_type_0::SimdSha256Hash2            0      0.00%     72.44% # Type of FU issued
system.cpu.iq.FU_type_0::SimdShaSigma2              0      0.00%     72.44% # Type of FU issued
system.cpu.iq.FU_type_0::SimdShaSigma3              0      0.00%     72.44% # Type of FU issued
system.cpu.iq.FU_type_0::SimdPredAlu                0      0.00%     72.44% # Type of FU issued
system.cpu.iq.FU_type_0::MemRead               504145     14.31%     86.75% # Type of FU issued
system.cpu.iq.FU_type_0::MemWrite              466780     13.25%    100.00% # Type of FU issued
system.cpu.iq.FU_type_0::FloatMemRead               0      0.00%    100.00% # Type of FU issued
system.cpu.iq.FU_type_0::FloatMemWrite              0      0.00%    100.00% # Type of FU issued
system.cpu.iq.FU_type_0::IprAccess                  0      0.00%    100.00% # Type of FU issued
system.cpu.iq.FU_type_0::InstPrefetch               0      0.00%    100.00% # Type of FU issued
system.cpu.iq.FU_type_0::total                3522624                       # Type of FU issued
system.cpu.iq.fp_alu_accesses                       0                       # Number of floating point alu accesses
system.cpu.iq.fp_inst_queue_reads                   0                       # Number of floating instruction queue reads
system.cpu.iq.fp_inst_queue_wakeup_accesses            0                       # Number of floating instruction queue wakeup accesses
system.cpu.iq.fp_inst_queue_writes                  0                       # Number of floating instruction queue writes
system.cpu.iq.fu_busy_cnt                       49632                       # FU busy when requested
system.cpu.iq.fu_busy_rate                   0.014089                       # FU busy rate (busy events/executed inst)
system.cpu.iq.fu_full::No_OpClass                   0      0.00%      0.00% # attempts to use FU when none available
system.cpu.iq.fu_full::IntAlu                   22220     44.77%     44.77% # attempts to use FU when none available
system.cpu.iq.fu_full::IntMult                    681      1.37%     46.14% # attempts to use FU when none available
system.cpu.iq.fu_full::IntDiv                      39      0.08%     46.22% # attempts to use FU when none available
system.cpu.iq.fu_full::FloatAdd                     0      0.00%     46.22% # attempts to use FU when none available
system.cpu.iq.fu_full::FloatCmp                     0      0.00%     46.22% # attempts to use FU when none available
system.cpu.iq.fu_full::FloatCvt                     0      0.00%     46.22% # attempts to use FU when none available
system.cpu.iq.fu_full::FloatMult                  127      0.26%     46.48% # attempts to use FU when none available
system.cpu.iq.fu_full::FloatMultAcc                80      0.16%     46.64% # attempts to use FU when none available
system.cpu.iq.fu_full::FloatDiv                     0      0.00%     46.64% # attempts to use FU when none available
system.cpu.iq.fu_full::FloatMisc                    1      0.00%     46.64% # attempts to use FU when none available
system.cpu.iq.fu_full::FloatSqrt                    0      0.00%     46.64% # attempts to use FU when none available
system.cpu.iq.fu_full::SimdAdd                      0      0.00%     46.64% # attempts to use FU when none available
system.cpu.iq.fu_full::SimdAddAcc                   0      0.00%     46.64% # attempts to use FU when none available
system.cpu.iq.fu_full::SimdAlu                      1      0.00%     46.64% # attempts to use FU when none available
system.cpu.iq.fu_full::SimdCmp                     10      0.02%     46.66% # attempts to use FU when none available
system.cpu.iq.fu_full::SimdCvt                      0      0.00%     46.66% # attempts to use FU when none available
system.cpu.iq.fu_full::SimdMisc                     0      0.00%     46.66% # attempts to use FU when none available
system.cpu.iq.fu_full::SimdMult                     0      0.00%     46.66% # attempts to use FU when none available
system.cpu.iq.fu_full::SimdMultAcc                  0      0.00%     46.66% # attempts to use FU when none available
system.cpu.iq.fu_full::SimdShift                    0      0.00%     46.66% # attempts to use FU when none available
system.cpu.iq.fu_full::SimdShiftAcc                 0      0.00%     46.66% # attempts to use FU when none available
system.cpu.iq.fu_full::SimdDiv                      0      0.00%     46.66% # attempts to use FU when none available
system.cpu.iq.fu_full::SimdSqrt                     0      0.00%     46.66% # attempts to use FU when none available
system.cpu.iq.fu_full::SimdFloatAdd                 0      0.00%     46.66% # attempts to use FU when none available
system.cpu.iq.fu_full::SimdFloatAlu                 0      0.00%     46.66% # attempts to use FU when none available
system.cpu.iq.fu_full::SimdFloatCmp                 0      0.00%     46.66% # attempts to use FU when none available
system.cpu.iq.fu_full::SimdFloatCvt                 0      0.00%     46.66% # attempts to use FU when none available
system.cpu.iq.fu_full::SimdFloatDiv                 0      0.00%     46.66% # attempts to use FU when none available
system.cpu.iq.fu_full::SimdFloatMisc                0      0.00%     46.66% # attempts to use FU when none available
system.cpu.iq.fu_full::SimdFloatMult                0      0.00%     46.66% # attempts to use FU when none available
system.cpu.iq.fu_full::SimdFloatMultAcc             0      0.00%     46.66% # attempts to use FU when none available
system.cpu.iq.fu_full::SimdFloatSqrt                0      0.00%     46.66% # attempts to use FU when none available
system.cpu.iq.fu_full::SimdReduceAdd                0      0.00%     46.66% # attempts to use FU when none available
system.cpu.iq.fu_full::SimdReduceAlu                0      0.00%     46.66% # attempts to use FU when none available
system.cpu.iq.fu_full::SimdReduceCmp                0      0.00%     46.66% # attempts to use FU when none available
system.cpu.iq.fu_full::SimdFloatReduceAdd            0      0.00%     46.66% # attempts to use FU when none available
system.cpu.iq.fu_full::SimdFloatReduceCmp            0      0.00%     46.66% # attempts to use FU when none available
system.cpu.iq.fu_full::SimdAes                      0      0.00%     46.66% # attempts to use FU when none available
system.cpu.iq.fu_full::SimdAesMix                   0      0.00%     46.66% # attempts to use FU when none available
system.cpu.iq.fu_full::SimdSha1Hash                 0      0.00%     46.66% # attempts to use FU when none available
system.cpu.iq.fu_full::SimdSha1Hash2                0      0.00%     46.66% # attempts to use FU when none available
system.cpu.iq.fu_full::SimdSha256Hash               0      0.00%     46.66% # attempts to use FU when none available
system.cpu.iq.fu_full::SimdSha256Hash2              0      0.00%     46.66% # attempts to use FU when none available
system.cpu.iq.fu_full::SimdShaSigma2                0      0.00%     46.66% # attempts to use FU when none available
system.cpu.iq.fu_full::SimdShaSigma3                0      0.00%     46.66% # attempts to use FU when none available
system.cpu.iq.fu_full::SimdPredAlu                  0      0.00%     46.66% # attempts to use FU when none available
system.cpu.iq.fu_full::MemRead                   4777      9.62%     56.29% # attempts to use FU when none available
system.cpu.iq.fu_full::MemWrite                 21696     43.71%    100.00% # attempts to use FU when none available
system.cpu.iq.fu_full::FloatMemRead                 0      0.00%    100.00% # attempts to use FU when none available
system.cpu.iq.fu_full::FloatMemWrite                0      0.00%    100.00% # attempts to use FU when none available
system.cpu.iq.fu_full::IprAccess                    0      0.00%    100.00% # attempts to use FU when none available
system.cpu.iq.fu_full::InstPrefetch                 0      0.00%    100.00% # attempts to use FU when none available
system.cpu.iq.int_alu_accesses                3537528                       # Number of integer alu accesses
system.cpu.iq.int_inst_queue_reads           10305370                       # Number of integer instruction queue reads
system.cpu.iq.int_inst_queue_wakeup_accesses      3459638                       # Number of integer instruction queue wakeup accesses
system.cpu.iq.int_inst_queue_writes           3787309                       # Number of integer instruction queue writes
system.cpu.iq.iqInstsAdded                    3547454                       # Number of instructions added to the IQ (excludes non-spec)
system.cpu.iq.iqInstsIssued                   3522624                       # Number of instructions issued
system.cpu.iq.iqNonSpecInstsAdded                 534                       # Number of non-speculative instructions added to the IQ
system.cpu.iq.iqSquashedInstsExamined          277643                       # Number of squashed instructions iterated over during squash; mainly for profiling
system.cpu.iq.iqSquashedInstsIssued              1304                       # Number of squashed instructions issued
system.cpu.iq.iqSquashedNonSpecRemoved            146                       # Number of squashed non-spec instructions that were removed
system.cpu.iq.iqSquashedOperandsExamined       122900                       # Number of squashed operands that are examined and possibly removed from graph
system.cpu.iq.issued_per_cycle::samples       3276428                       # Number of insts issued each cycle
system.cpu.iq.issued_per_cycle::mean         1.075142                       # Number of insts issued each cycle
system.cpu.iq.issued_per_cycle::stdev        1.850273                       # Number of insts issued each cycle
system.cpu.iq.issued_per_cycle::underflows            0      0.00%      0.00% # Number of insts issued each cycle
system.cpu.iq.issued_per_cycle::0             2161613     65.97%     65.97% # Number of insts issued each cycle
system.cpu.iq.issued_per_cycle::1              251010      7.66%     73.64% # Number of insts issued each cycle
system.cpu.iq.issued_per_cycle::2              235011      7.17%     80.81% # Number of insts issued each cycle
system.cpu.iq.issued_per_cycle::3              218429      6.67%     87.48% # Number of insts issued each cycle
system.cpu.iq.issued_per_cycle::4              160413      4.90%     92.37% # Number of insts issued each cycle
system.cpu.iq.issued_per_cycle::5               87638      2.67%     95.05% # Number of insts issued each cycle
system.cpu.iq.issued_per_cycle::6               91185      2.78%     97.83% # Number of insts issued each cycle
system.cpu.iq.issued_per_cycle::7               49679      1.52%     99.35% # Number of insts issued each cycle
system.cpu.iq.issued_per_cycle::8               21450      0.65%    100.00% # Number of insts issued each cycle
system.cpu.iq.issued_per_cycle::overflows            0      0.00%    100.00% # Number of insts issued each cycle
system.cpu.iq.issued_per_cycle::min_value            0                       # Number of insts issued each cycle
system.cpu.iq.issued_per_cycle::max_value            8                       # Number of insts issued each cycle
system.cpu.iq.issued_per_cycle::total         3276428                       # Number of insts issued each cycle
system.cpu.iq.rate                           1.002140                       # Inst issue rate
system.cpu.iq.vec_alu_accesses                  34669                       # Number of vector alu accesses
system.cpu.iq.vec_inst_queue_reads              67242                       # Number of vector instruction queue reads
system.cpu.iq.vec_inst_queue_wakeup_accesses        30901                       # Number of vector instruction queue wakeup accesses
system.cpu.iq.vec_inst_queue_writes             38353                       # Number of vector instruction queue writes
system.cpu.itb.accesses                             0                       # DTB accesses
system.cpu.itb.align_faults                         0                       # Number of TLB faults due to alignment restrictions
system.cpu.itb.domain_faults                        0                       # Number of TLB faults due to domain restrictions
system.cpu.itb.flush_entries                        0                       # Number of entries that have been flushed from TLB
system.cpu.itb.flush_tlb                            0                       # Number of times complete TLB was flushed
system.cpu.itb.flush_tlb_asid                       0                       # Number of times TLB was flushed by ASID
system.cpu.itb.flush_tlb_mva                        0                       # Number of times TLB was flushed by MVA
system.cpu.itb.flush_tlb_mva_asid                   0                       # Number of times TLB was flushed by MVA & ASID
system.cpu.itb.hits                                 0                       # DTB hits
system.cpu.itb.inst_accesses                        0                       # ITB inst accesses
system.cpu.itb.inst_hits                            0                       # ITB inst hits
system.cpu.itb.inst_misses                          0                       # ITB inst misses
system.cpu.itb.misses                               0                       # DTB misses
system.cpu.itb.perms_faults                         0                       # Number of TLB faults due to permissions restrictions
system.cpu.itb.prefetch_faults                      0                       # Number of TLB faults due to prefetch
system.cpu.itb.read_accesses                        0                       # DTB read accesses
system.cpu.itb.read_hits                            0                       # DTB read hits
system.cpu.itb.read_misses                          0                       # DTB read misses
system.cpu.itb.stage2_mmu.stage2_tlb.accesses            0                       # DTB accesses
system.cpu.itb.stage2_mmu.stage2_tlb.align_faults            0                       # Number of TLB faults due to alignment restrictions
system.cpu.itb.stage2_mmu.stage2_tlb.domain_faults            0                       # Number of TLB faults due to domain restrictions
system.cpu.itb.stage2_mmu.stage2_tlb.flush_entries            0                       # Number of entries that have been flushed from TLB
system.cpu.itb.stage2_mmu.stage2_tlb.flush_tlb            0                       # Number of times complete TLB was flushed
system.cpu.itb.stage2_mmu.stage2_tlb.flush_tlb_asid            0                       # Number of times TLB was flushed by ASID
system.cpu.itb.stage2_mmu.stage2_tlb.flush_tlb_mva            0                       # Number of times TLB was flushed by MVA
system.cpu.itb.stage2_mmu.stage2_tlb.flush_tlb_mva_asid            0                       # Number of times TLB was flushed by MVA & ASID
system.cpu.itb.stage2_mmu.stage2_tlb.hits            0                       # DTB hits
system.cpu.itb.stage2_mmu.stage2_tlb.inst_accesses            0                       # ITB inst accesses
system.cpu.itb.stage2_mmu.stage2_tlb.inst_hits            0                       # ITB inst hits
system.cpu.itb.stage2_mmu.stage2_tlb.inst_misses            0                       # ITB inst misses
system.cpu.itb.stage2_mmu.stage2_tlb.misses            0                       # DTB misses
system.cpu.itb.stage2_mmu.stage2_tlb.perms_faults            0                       # Number of TLB faults due to permissions restrictions
system.cpu.itb.stage2_mmu.stage2_tlb.prefetch_faults            0                       # Number of TLB faults due to prefetch
system.cpu.itb.stage2_mmu.stage2_tlb.read_accesses            0                       # DTB read accesses
system.cpu.itb.stage2_mmu.stage2_tlb.read_hits            0                       # DTB read hits
system.cpu.itb.stage2_mmu.stage2_tlb.read_misses            0                       # DTB read misses
system.cpu.itb.stage2_mmu.stage2_tlb.walker.walkRequestOrigin_Requested::Data            0                       # Table walker requests started/completed, data/inst
system.cpu.itb.stage2_mmu.stage2_tlb.walker.walkRequestOrigin_Requested::Inst            0                       # Table walker requests started/completed, data/inst
system.cpu.itb.stage2_mmu.stage2_tlb.walker.walkRequestOrigin_Requested::total            0                       # Table walker requests started/completed, data/inst
system.cpu.itb.stage2_mmu.stage2_tlb.walker.walkRequestOrigin_Completed::Data            0                       # Table walker requests started/completed, data/inst
system.cpu.itb.stage2_mmu.stage2_tlb.walker.walkRequestOrigin_Completed::Inst            0                       # Table walker requests started/completed, data/inst
system.cpu.itb.stage2_mmu.stage2_tlb.walker.walkRequestOrigin_Completed::total            0                       # Table walker requests started/completed, data/inst
system.cpu.itb.stage2_mmu.stage2_tlb.walker.walkRequestOrigin::total            0                       # Table walker requests started/completed, data/inst
system.cpu.itb.stage2_mmu.stage2_tlb.walker.walks            0                       # Table walker walks requested
system.cpu.itb.stage2_mmu.stage2_tlb.write_accesses            0                       # DTB write accesses
system.cpu.itb.stage2_mmu.stage2_tlb.write_hits            0                       # DTB write hits
system.cpu.itb.stage2_mmu.stage2_tlb.write_misses            0                       # DTB write misses
system.cpu.itb.walker.walkRequestOrigin_Requested::Data            0                       # Table walker requests started/completed, data/inst
system.cpu.itb.walker.walkRequestOrigin_Requested::Inst            0                       # Table walker requests started/completed, data/inst
system.cpu.itb.walker.walkRequestOrigin_Requested::total            0                       # Table walker requests started/completed, data/inst
system.cpu.itb.walker.walkRequestOrigin_Completed::Data            0                       # Table walker requests started/completed, data/inst
system.cpu.itb.walker.walkRequestOrigin_Completed::Inst            0                       # Table walker requests started/completed, data/inst
system.cpu.itb.walker.walkRequestOrigin_Completed::total            0                       # Table walker requests started/completed, data/inst
system.cpu.itb.walker.walkRequestOrigin::total            0                       # Table walker requests started/completed, data/inst
system.cpu.itb.walker.walks                         0                       # Table walker walks requested
system.cpu.itb.write_accesses                       0                       # DTB write accesses
system.cpu.itb.write_hits                           0                       # DTB write hits
system.cpu.itb.write_misses                         0                       # DTB write misses
system.cpu.memDep0.conflictingLoads              5083                       # Number of conflicting loads.
system.cpu.memDep0.conflictingStores             4809                       # Number of conflicting stores.
system.cpu.memDep0.insertedLoads               503808                       # Number of loads inserted to the mem dependence unit.
system.cpu.memDep0.insertedStores              470985                       # Number of stores inserted to the mem dependence unit.
system.cpu.misc_regfile_reads                 2434801                       # number of misc regfile reads
system.cpu.misc_regfile_writes                   6559                       # number of misc regfile writes
system.cpu.numCycles                          3515100                       # number of cpu cycles simulated
system.cpu.numWorkItemsCompleted                    0                       # number of work items this cpu completed
system.cpu.numWorkItemsStarted                      0                       # number of work items this cpu started
system.cpu.rename.BlockCycles                   71835                       # Number of cycles rename is blocking
system.cpu.rename.CommittedMaps               3318812                       # Number of HB maps that are committed
system.cpu.rename.IQFullEvents                   8381                       # Number of times rename has blocked due to IQ full
system.cpu.rename.IdleCycles                  1298428                       # Number of cycles rename is idle
system.cpu.rename.LQFullEvents                   3583                       # Number of times rename has blocked due to LQ full
system.cpu.rename.ROBFullEvents                    30                       # Number of times rename has blocked due to ROB full
system.cpu.rename.RenameLookups               5364992                       # Number of register rename lookups that rename has made
system.cpu.rename.RenamedInsts                3584880                       # Number of instructions processed by rename
system.cpu.rename.RenamedOperands             3623163                       # Number of destination operands rename has renamed
system.cpu.rename.RunCycles                    593816                       # Number of cycles rename is running
system.cpu.rename.SQFullEvents                 274962                       # Number of times rename has blocked due to SQ full
system.cpu.rename.SquashCycles                   8853                       # Number of cycles rename is squashing
system.cpu.rename.UnblockCycles                309935                       # Number of cycles rename is unblocking
system.cpu.rename.UndoneMaps                   304351                       # Number of HB maps that are undone due to squashing
system.cpu.rename.int_rename_lookups          4051980                       # Number of integer rename lookups
system.cpu.rename.serializeStallCycles         993561                       # count of cycles rename stalled for serializing inst
system.cpu.rename.serializingInsts              24288                       # count of serializing insts renamed
system.cpu.rename.skidInsts                    222217                       # count of insts added to the skid buffer
system.cpu.rename.tempSerializingInsts            531                       # count of temporary serializing insts renamed
system.cpu.rename.vec_rename_lookups            35211                       # Number of vector rename lookups
system.cpu.rob.rob_reads                      6590761                       # The number of ROB reads
system.cpu.rob.rob_writes                     7146939                       # The number of ROB writes
system.cpu.timesIdled                           35091                       # Number of times that the entire CPU went into an idle state and unscheduled itself
system.cpu.vec_regfile_reads                    31750                       # number of vector regfile reads
system.cpu.vec_regfile_writes                   10031                       # number of vector regfile writes
system.cpu.workload.numSyscalls                   109                       # Number of system calls
system.membus.snoop_filter.hit_multi_requests            0                       # Number of requests hitting in the snoop filter with multiple (>1) holders of the requested data.
system.membus.snoop_filter.hit_multi_snoops            0                       # Number of snoops hitting in the snoop filter with multiple (>1) holders of the requested data.
system.membus.snoop_filter.hit_single_requests          448                       # Number of requests hitting in the snoop filter with a single holder of the requested data.
system.membus.snoop_filter.hit_single_snoops            0                       # Number of snoops hitting in the snoop filter with a single holder of the requested data.
system.membus.snoop_filter.tot_requests         27832                       # Total number of requests made to the snoop filter.
system.membus.snoop_filter.tot_snoops               0                       # Total number of snoops made to the snoop filter.
system.tol2bus.snoop_filter.hit_multi_requests            1                       # Number of requests hitting in the snoop filter with multiple (>1) holders of the requested data.
system.tol2bus.snoop_filter.hit_multi_snoops            0                       # Number of snoops hitting in the snoop filter with multiple (>1) holders of the requested data.
system.tol2bus.snoop_filter.hit_single_requests        78136                       # Number of requests hitting in the snoop filter with a single holder of the requested data.
system.tol2bus.snoop_filter.hit_single_snoops            0                       # Number of snoops hitting in the snoop filter with a single holder of the requested data.
system.tol2bus.snoop_filter.tot_requests       157361                       # Total number of requests made to the snoop filter.
system.tol2bus.snoop_filter.tot_snoops              0                       # Total number of snoops made to the snoop filter.
system.membus.trans_dist::ReadResp               1870                       # Transaction distribution
system.membus.trans_dist::WritebackDirty          292                       # Transaction distribution
system.membus.trans_dist::CleanEvict              156                       # Transaction distribution
system.membus.trans_dist::ReadExReq              8400                       # Transaction distribution
system.membus.trans_dist::ReadExResp             8400                       # Transaction distribution
system.membus.trans_dist::ReadSharedReq          1870                       # Transaction distribution
system.membus.trans_dist::InvalidateReq         17114                       # Transaction distribution
system.membus.pkt_count_system.l2.mem_side::system.mem_ctrls.port        38102                       # Packet count per connected master and slave (bytes)
system.membus.pkt_count::total                  38102                       # Packet count per connected master and slave (bytes)
system.membus.pkt_size_system.l2.mem_side::system.mem_ctrls.port       675968                       # Cumulative packet size per connected master and slave (bytes)
system.membus.pkt_size::total                  675968                       # Cumulative packet size per connected master and slave (bytes)
system.membus.snoops                                0                       # Total snoops (count)
system.membus.snoopTraffic                          0                       # Total snoop traffic (bytes)
system.membus.snoop_fanout::samples             27384                       # Request fanout histogram
system.membus.snoop_fanout::mean                    0                       # Request fanout histogram
system.membus.snoop_fanout::stdev                   0                       # Request fanout histogram
system.membus.snoop_fanout::underflows              0      0.00%      0.00% # Request fanout histogram
system.membus.snoop_fanout::0                   27384    100.00%    100.00% # Request fanout histogram
system.membus.snoop_fanout::1                       0      0.00%    100.00% # Request fanout histogram
system.membus.snoop_fanout::overflows               0      0.00%    100.00% # Request fanout histogram
system.membus.snoop_fanout::min_value               0                       # Request fanout histogram
system.membus.snoop_fanout::max_value               0                       # Request fanout histogram
system.membus.snoop_fanout::total               27384                       # Request fanout histogram
system.membus.reqLayer0.occupancy            32396000                       # Layer occupancy (ticks)
system.membus.reqLayer0.utilization               1.8                       # Layer utilization (%)
system.membus.respLayer1.occupancy           54547000                       # Layer occupancy (ticks)
system.membus.respLayer1.utilization              3.1                       # Layer utilization (%)
system.membus.power_state.pwrStateResidencyTicks::UNDEFINED   1757549500                       # Cumulative time (in ticks) in various power states
system.tol2bus.trans_dist::ReadResp             53522                       # Transaction distribution
system.tol2bus.trans_dist::WritebackDirty        25589                       # Transaction distribution
system.tol2bus.trans_dist::WritebackClean        52408                       # Transaction distribution
system.tol2bus.trans_dist::CleanEvict             587                       # Transaction distribution
system.tol2bus.trans_dist::ReadExReq             8557                       # Transaction distribution
system.tol2bus.trans_dist::ReadExResp            8557                       # Transaction distribution
system.tol2bus.trans_dist::ReadCleanReq         52473                       # Transaction distribution
system.tol2bus.trans_dist::ReadSharedReq         1050                       # Transaction distribution
system.tol2bus.trans_dist::InvalidateReq        17145                       # Transaction distribution
system.tol2bus.trans_dist::InvalidateResp        17145                       # Transaction distribution
system.tol2bus.pkt_count_system.cpu.icache.mem_side::system.l2.cpu_side       157353                       # Packet count per connected master and slave (bytes)
system.tol2bus.pkt_count_system.cpu.dcache.mem_side::system.l2.cpu_side        79232                       # Packet count per connected master and slave (bytes)
system.tol2bus.pkt_count::total                236585                       # Packet count per connected master and slave (bytes)
system.tol2bus.pkt_size_system.cpu.icache.mem_side::system.l2.cpu_side      6712320                       # Cumulative packet size per connected master and slave (bytes)
system.tol2bus.pkt_size_system.cpu.dcache.mem_side::system.l2.cpu_side      2233856                       # Cumulative packet size per connected master and slave (bytes)
system.tol2bus.pkt_size::total                8946176                       # Cumulative packet size per connected master and slave (bytes)
system.tol2bus.snoops                             448                       # Total snoops (count)
system.tol2bus.snoopTraffic                     18688                       # Total snoop traffic (bytes)
system.tol2bus.snoop_fanout::samples            79673                       # Request fanout histogram
system.tol2bus.snoop_fanout::mean            0.000013                       # Request fanout histogram
system.tol2bus.snoop_fanout::stdev           0.003543                       # Request fanout histogram
system.tol2bus.snoop_fanout::underflows             0      0.00%      0.00% # Request fanout histogram
system.tol2bus.snoop_fanout::0                  79672    100.00%    100.00% # Request fanout histogram
system.tol2bus.snoop_fanout::1                      1      0.00%    100.00% # Request fanout histogram
system.tol2bus.snoop_fanout::2                      0      0.00%    100.00% # Request fanout histogram
system.tol2bus.snoop_fanout::overflows              0      0.00%    100.00% # Request fanout histogram
system.tol2bus.snoop_fanout::min_value              0                       # Request fanout histogram
system.tol2bus.snoop_fanout::max_value              1                       # Request fanout histogram
system.tol2bus.snoop_fanout::total              79673                       # Request fanout histogram
system.tol2bus.reqLayer0.occupancy          156385500                       # Layer occupancy (ticks)
system.tol2bus.reqLayer0.utilization              8.9                       # Layer utilization (%)
system.tol2bus.respLayer1.occupancy          22990485                       # Layer occupancy (ticks)
system.tol2bus.respLayer1.utilization             1.3                       # Layer utilization (%)
system.tol2bus.respLayer0.occupancy          78708000                       # Layer occupancy (ticks)
system.tol2bus.respLayer0.utilization             4.5                       # Layer utilization (%)
system.tol2bus.power_state.pwrStateResidencyTicks::UNDEFINED   1757549500                       # Cumulative time (in ticks) in various power states
system.voltage_domain.voltage                       1                       # Voltage in Volts
system.clk_domain.clock                          1000                       # Clock period in ticks
system.l2.demand_hits::.cpu.inst                51218                       # number of demand (read+write) hits
system.l2.demand_hits::.cpu.data                  591                       # number of demand (read+write) hits
system.l2.demand_hits::total                    51809                       # number of demand (read+write) hits
system.l2.overall_hits::.cpu.inst               51218                       # number of overall hits
system.l2.overall_hits::.cpu.data                 591                       # number of overall hits
system.l2.overall_hits::total                   51809                       # number of overall hits
system.l2.demand_misses::.cpu.inst               1255                       # number of demand (read+write) misses
system.l2.demand_misses::.cpu.data               9016                       # number of demand (read+write) misses
system.l2.demand_misses::total                  10271                       # number of demand (read+write) misses
system.l2.overall_misses::.cpu.inst              1255                       # number of overall misses
system.l2.overall_misses::.cpu.data              9016                       # number of overall misses
system.l2.overall_misses::total                 10271                       # number of overall misses
system.l2.demand_miss_latency::.cpu.inst     99537500                       # number of demand (read+write) miss cycles
system.l2.demand_miss_latency::.cpu.data    710415000                       # number of demand (read+write) miss cycles
system.l2.demand_miss_latency::total        809952500                       # number of demand (read+write) miss cycles
system.l2.overall_miss_latency::.cpu.inst     99537500                       # number of overall miss cycles
system.l2.overall_miss_latency::.cpu.data    710415000                       # number of overall miss cycles
system.l2.overall_miss_latency::total       809952500                       # number of overall miss cycles
system.l2.demand_accesses::.cpu.inst            52473                       # number of demand (read+write) accesses
system.l2.demand_accesses::.cpu.data             9607                       # number of demand (read+write) accesses
system.l2.demand_accesses::total                62080                       # number of demand (read+write) accesses
system.l2.overall_accesses::.cpu.inst           52473                       # number of overall (read+write) accesses
system.l2.overall_accesses::.cpu.data            9607                       # number of overall (read+write) accesses
system.l2.overall_accesses::total               62080                       # number of overall (read+write) accesses
system.l2.demand_miss_rate::.cpu.inst        0.023917                       # miss rate for demand accesses
system.l2.demand_miss_rate::.cpu.data        0.938482                       # miss rate for demand accesses
system.l2.demand_miss_rate::total            0.165448                       # miss rate for demand accesses
system.l2.overall_miss_rate::.cpu.inst       0.023917                       # miss rate for overall accesses
system.l2.overall_miss_rate::.cpu.data       0.938482                       # miss rate for overall accesses
system.l2.overall_miss_rate::total           0.165448                       # miss rate for overall accesses
system.l2.demand_avg_miss_latency::.cpu.inst 79312.749004                       # average overall miss latency
system.l2.demand_avg_miss_latency::.cpu.data 78794.920142                       # average overall miss latency
system.l2.demand_avg_miss_latency::total 78858.192970                       # average overall miss latency
system.l2.overall_avg_miss_latency::.cpu.inst 79312.749004                       # average overall miss latency
system.l2.overall_avg_miss_latency::.cpu.data 78794.920142                       # average overall miss latency
system.l2.overall_avg_miss_latency::total 78858.192970                       # average overall miss latency
system.l2.blocked_cycles::no_mshrs                  0                       # number of cycles access was blocked
system.l2.blocked_cycles::no_targets                0                       # number of cycles access was blocked
system.l2.blocked::no_mshrs                         0                       # number of cycles access was blocked
system.l2.blocked::no_targets                       0                       # number of cycles access was blocked
system.l2.avg_blocked_cycles::no_mshrs            nan                       # average number of cycles each access was blocked
system.l2.avg_blocked_cycles::no_targets          nan                       # average number of cycles each access was blocked
system.l2.writebacks::.writebacks                 292                       # number of writebacks
system.l2.writebacks::total                       292                       # number of writebacks
system.l2.demand_mshr_misses::.cpu.inst          1255                       # number of demand (read+write) MSHR misses
system.l2.demand_mshr_misses::.cpu.data          9016                       # number of demand (read+write) MSHR misses
system.l2.demand_mshr_misses::total             10271                       # number of demand (read+write) MSHR misses
system.l2.overall_mshr_misses::.cpu.inst         1255                       # number of overall MSHR misses
system.l2.overall_mshr_misses::.cpu.data         9016                       # number of overall MSHR misses
system.l2.overall_mshr_misses::total            10271                       # number of overall MSHR misses
system.l2.demand_mshr_miss_latency::.cpu.inst     86994506                       # number of demand (read+write) MSHR miss cycles
system.l2.demand_mshr_miss_latency::.cpu.data    620254002                       # number of demand (read+write) MSHR miss cycles
system.l2.demand_mshr_miss_latency::total    707248508                       # number of demand (read+write) MSHR miss cycles
system.l2.overall_mshr_miss_latency::.cpu.inst     86994506                       # number of overall MSHR miss cycles
system.l2.overall_mshr_miss_latency::.cpu.data    620254002                       # number of overall MSHR miss cycles
system.l2.overall_mshr_miss_latency::total    707248508                       # number of overall MSHR miss cycles
system.l2.demand_mshr_miss_rate::.cpu.inst     0.023917                       # mshr miss rate for demand accesses
system.l2.demand_mshr_miss_rate::.cpu.data     0.938482                       # mshr miss rate for demand accesses
system.l2.demand_mshr_miss_rate::total       0.165448                       # mshr miss rate for demand accesses
system.l2.overall_mshr_miss_rate::.cpu.inst     0.023917                       # mshr miss rate for overall accesses
system.l2.overall_mshr_miss_rate::.cpu.data     0.938482                       # mshr miss rate for overall accesses
system.l2.overall_mshr_miss_rate::total      0.165448                       # mshr miss rate for overall accesses
system.l2.demand_avg_mshr_miss_latency::.cpu.inst 69318.331474                       # average overall mshr miss latency
system.l2.demand_avg_mshr_miss_latency::.cpu.data 68794.809450                       # average overall mshr miss latency
system.l2.demand_avg_mshr_miss_latency::total 68858.777918                       # average overall mshr miss latency
system.l2.overall_avg_mshr_miss_latency::.cpu.inst 69318.331474                       # average overall mshr miss latency
system.l2.overall_avg_mshr_miss_latency::.cpu.data 68794.809450                       # average overall mshr miss latency
system.l2.overall_avg_mshr_miss_latency::total 68858.777918                       # average overall mshr miss latency
system.l2.replacements                            448                       # number of replacements
system.l2.WritebackDirty_hits::.writebacks        25297                       # number of WritebackDirty hits
system.l2.WritebackDirty_hits::total            25297                       # number of WritebackDirty hits
system.l2.WritebackDirty_accesses::.writebacks        25297                       # number of WritebackDirty accesses(hits+misses)
system.l2.WritebackDirty_accesses::total        25297                       # number of WritebackDirty accesses(hits+misses)
system.l2.WritebackClean_hits::.writebacks        52407                       # number of WritebackClean hits
system.l2.WritebackClean_hits::total            52407                       # number of WritebackClean hits
system.l2.WritebackClean_accesses::.writebacks        52407                       # number of WritebackClean accesses(hits+misses)
system.l2.WritebackClean_accesses::total        52407                       # number of WritebackClean accesses(hits+misses)
system.l2.ReadExReq_hits::.cpu.data               157                       # number of ReadExReq hits
system.l2.ReadExReq_hits::total                   157                       # number of ReadExReq hits
system.l2.ReadExReq_misses::.cpu.data            8400                       # number of ReadExReq misses
system.l2.ReadExReq_misses::total                8400                       # number of ReadExReq misses
system.l2.ReadExReq_miss_latency::.cpu.data    661213000                       # number of ReadExReq miss cycles
system.l2.ReadExReq_miss_latency::total     661213000                       # number of ReadExReq miss cycles
system.l2.ReadExReq_accesses::.cpu.data          8557                       # number of ReadExReq accesses(hits+misses)
system.l2.ReadExReq_accesses::total              8557                       # number of ReadExReq accesses(hits+misses)
system.l2.ReadExReq_miss_rate::.cpu.data     0.981652                       # miss rate for ReadExReq accesses
system.l2.ReadExReq_miss_rate::total         0.981652                       # miss rate for ReadExReq accesses
system.l2.ReadExReq_avg_miss_latency::.cpu.data 78715.833333                       # average ReadExReq miss latency
system.l2.ReadExReq_avg_miss_latency::total 78715.833333                       # average ReadExReq miss latency
system.l2.ReadExReq_mshr_misses::.cpu.data         8400                       # number of ReadExReq MSHR misses
system.l2.ReadExReq_mshr_misses::total           8400                       # number of ReadExReq MSHR misses
system.l2.ReadExReq_mshr_miss_latency::.cpu.data    577212002                       # number of ReadExReq MSHR miss cycles
system.l2.ReadExReq_mshr_miss_latency::total    577212002                       # number of ReadExReq MSHR miss cycles
system.l2.ReadExReq_mshr_miss_rate::.cpu.data     0.981652                       # mshr miss rate for ReadExReq accesses
system.l2.ReadExReq_mshr_miss_rate::total     0.981652                       # mshr miss rate for ReadExReq accesses
system.l2.ReadExReq_avg_mshr_miss_latency::.cpu.data 68715.714524                       # average ReadExReq mshr miss latency
system.l2.ReadExReq_avg_mshr_miss_latency::total 68715.714524                       # average ReadExReq mshr miss latency
system.l2.ReadCleanReq_hits::.cpu.inst          51218                       # number of ReadCleanReq hits
system.l2.ReadCleanReq_hits::total              51218                       # number of ReadCleanReq hits
system.l2.ReadCleanReq_misses::.cpu.inst         1255                       # number of ReadCleanReq misses
system.l2.ReadCleanReq_misses::total             1255                       # number of ReadCleanReq misses
system.l2.ReadCleanReq_miss_latency::.cpu.inst     99537500                       # number of ReadCleanReq miss cycles
system.l2.ReadCleanReq_miss_latency::total     99537500                       # number of ReadCleanReq miss cycles
system.l2.ReadCleanReq_accesses::.cpu.inst        52473                       # number of ReadCleanReq accesses(hits+misses)
system.l2.ReadCleanReq_accesses::total          52473                       # number of ReadCleanReq accesses(hits+misses)
system.l2.ReadCleanReq_miss_rate::.cpu.inst     0.023917                       # miss rate for ReadCleanReq accesses
system.l2.ReadCleanReq_miss_rate::total      0.023917                       # miss rate for ReadCleanReq accesses
system.l2.ReadCleanReq_avg_miss_latency::.cpu.inst 79312.749004                       # average ReadCleanReq miss latency
system.l2.ReadCleanReq_avg_miss_latency::total 79312.749004                       # average ReadCleanReq miss latency
system.l2.ReadCleanReq_mshr_misses::.cpu.inst         1255                       # number of ReadCleanReq MSHR misses
system.l2.ReadCleanReq_mshr_misses::total         1255                       # number of ReadCleanReq MSHR misses
system.l2.ReadCleanReq_mshr_miss_latency::.cpu.inst     86994506                       # number of ReadCleanReq MSHR miss cycles
system.l2.ReadCleanReq_mshr_miss_latency::total     86994506                       # number of ReadCleanReq MSHR miss cycles
[...]
system.cpu.dcache.demand_accesses::.cpu.data       915241                       # number of demand (read+write) accesses
system.cpu.dcache.demand_accesses::total       915241                       # number of demand (read+write) accesses
system.cpu.dcache.overall_accesses::.cpu.data       915298                       # number of overall (read+write) accesses
system.cpu.dcache.overall_accesses::total       915298                       # number of overall (read+write) accesses
system.cpu.dcache.demand_miss_rate::.cpu.data     0.057477                       # miss rate for demand accesses
system.cpu.dcache.demand_miss_rate::total     0.057477                       # miss rate for demand accesses
system.cpu.dcache.overall_miss_rate::.cpu.data     0.057479                       # miss rate for overall accesses
system.cpu.dcache.overall_miss_rate::total     0.057479                       # miss rate for overall accesses
system.cpu.dcache.demand_avg_miss_latency::.cpu.data 50627.428419                       # average overall miss latency
system.cpu.dcache.demand_avg_miss_latency::total 50627.428419                       # average overall miss latency
system.cpu.dcache.overall_avg_miss_latency::.cpu.data 50622.616841                       # average overall miss latency
system.cpu.dcache.overall_avg_miss_latency::total 50622.616841                       # average overall miss latency
system.cpu.dcache.blocked_cycles::no_mshrs       265665                       # number of cycles access was blocked
system.cpu.dcache.blocked_cycles::no_targets            0                       # number of cycles access was blocked
system.cpu.dcache.blocked::no_mshrs             16106                       # number of cycles access was blocked
system.cpu.dcache.blocked::no_targets               0                       # number of cycles access was blocked
system.cpu.dcache.avg_blocked_cycles::no_mshrs    16.494785                       # average number of cycles each access was blocked
system.cpu.dcache.avg_blocked_cycles::no_targets          nan                       # average number of cycles each access was blocked
system.cpu.dcache.writebacks::.writebacks        25297                       # number of writebacks
system.cpu.dcache.writebacks::total             25297                       # number of writebacks
system.cpu.dcache.demand_mshr_hits::.cpu.data        25858                       # number of demand (read+write) MSHR hits
system.cpu.dcache.demand_mshr_hits::total        25858                       # number of demand (read+write) MSHR hits
system.cpu.dcache.overall_mshr_hits::.cpu.data        25858                       # number of overall MSHR hits
system.cpu.dcache.overall_mshr_hits::total        25858                       # number of overall MSHR hits
system.cpu.dcache.demand_mshr_misses::.cpu.data        26747                       # number of demand (read+write) MSHR misses
system.cpu.dcache.demand_mshr_misses::total        26747                       # number of demand (read+write) MSHR misses
system.cpu.dcache.overall_mshr_misses::.cpu.data        26749                       # number of overall MSHR misses
system.cpu.dcache.overall_mshr_misses::total        26749                       # number of overall MSHR misses
system.cpu.dcache.demand_mshr_miss_latency::.cpu.data   1275719752                       # number of demand (read+write) MSHR miss cycles
system.cpu.dcache.demand_mshr_miss_latency::total   1275719752                       # number of demand (read+write) MSHR miss cycles
system.cpu.dcache.overall_mshr_miss_latency::.cpu.data   1275904252                       # number of overall MSHR miss cycles
system.cpu.dcache.overall_mshr_miss_latency::total   1275904252                       # number of overall MSHR miss cycles
system.cpu.dcache.demand_mshr_miss_rate::.cpu.data     0.029224                       # mshr miss rate for demand accesses
system.cpu.dcache.demand_mshr_miss_rate::total     0.029224                       # mshr miss rate for demand accesses
system.cpu.dcache.overall_mshr_miss_rate::.cpu.data     0.029224                       # mshr miss rate for overall accesses
system.cpu.dcache.overall_mshr_miss_rate::total     0.029224                       # mshr miss rate for overall accesses
system.cpu.dcache.demand_avg_mshr_miss_latency::.cpu.data 47695.807081                       # average overall mshr miss latency
system.cpu.dcache.demand_avg_mshr_miss_latency::total 47695.807081                       # average overall mshr miss latency
system.cpu.dcache.overall_avg_mshr_miss_latency::.cpu.data 47699.138360                       # average overall mshr miss latency
system.cpu.dcache.overall_avg_mshr_miss_latency::total 47699.138360                       # average overall mshr miss latency
system.cpu.dcache.replacements                  25728                       # number of replacements
system.cpu.dcache.ReadReq_hits::.cpu.data       477961                       # number of ReadReq hits
system.cpu.dcache.ReadReq_hits::total          477961                       # number of ReadReq hits
system.cpu.dcache.ReadReq_misses::.cpu.data         2755                       # number of ReadReq misses
system.cpu.dcache.ReadReq_misses::total          2755                       # number of ReadReq misses
system.cpu.dcache.ReadReq_miss_latency::.cpu.data    145300500                       # number of ReadReq miss cycles
system.cpu.dcache.ReadReq_miss_latency::total    145300500                       # number of ReadReq miss cycles
system.cpu.dcache.ReadReq_accesses::.cpu.data       480716                       # number of ReadReq accesses(hits+misses)
system.cpu.dcache.ReadReq_accesses::total       480716                       # number of ReadReq accesses(hits+misses)
system.cpu.dcache.ReadReq_miss_rate::.cpu.data     0.005731                       # miss rate for ReadReq accesses
system.cpu.dcache.ReadReq_miss_rate::total     0.005731                       # miss rate for ReadReq accesses
system.cpu.dcache.ReadReq_avg_miss_latency::.cpu.data 52740.653358                       # average ReadReq miss latency
system.cpu.dcache.ReadReq_avg_miss_latency::total 52740.653358                       # average ReadReq miss latency
system.cpu.dcache.ReadReq_mshr_hits::.cpu.data         1709                       # number of ReadReq MSHR hits
system.cpu.dcache.ReadReq_mshr_hits::total         1709                       # number of ReadReq MSHR hits
system.cpu.dcache.ReadReq_mshr_misses::.cpu.data         1046                       # number of ReadReq MSHR misses
system.cpu.dcache.ReadReq_mshr_misses::total         1046                       # number of ReadReq MSHR misses
system.cpu.dcache.ReadReq_mshr_miss_latency::.cpu.data     55197500                       # number of ReadReq MSHR miss cycles
system.cpu.dcache.ReadReq_mshr_miss_latency::total     55197500                       # number of ReadReq MSHR miss cycles
system.cpu.dcache.ReadReq_mshr_miss_rate::.cpu.data     0.002176                       # mshr miss rate for ReadReq accesses
system.cpu.dcache.ReadReq_mshr_miss_rate::total     0.002176                       # mshr miss rate for ReadReq accesses
system.cpu.dcache.ReadReq_avg_mshr_miss_latency::.cpu.data 52770.076482                       # average ReadReq mshr miss latency
system.cpu.dcache.ReadReq_avg_mshr_miss_latency::total 52770.076482                       # average ReadReq mshr miss latency
system.cpu.dcache.WriteReq_hits::.cpu.data       384386                       # number of WriteReq hits
system.cpu.dcache.WriteReq_hits::total         384386                       # number of WriteReq hits
system.cpu.dcache.WriteReq_misses::.cpu.data        33221                       # number of WriteReq misses
system.cpu.dcache.WriteReq_misses::total        33221                       # number of WriteReq misses
system.cpu.dcache.WriteReq_miss_latency::.cpu.data   1972196060                       # number of WriteReq miss cycles
system.cpu.dcache.WriteReq_miss_latency::total   1972196060                       # number of WriteReq miss cycles
system.cpu.dcache.WriteReq_accesses::.cpu.data       417607                       # number of WriteReq accesses(hits+misses)
system.cpu.dcache.WriteReq_accesses::total       417607                       # number of WriteReq accesses(hits+misses)
system.cpu.dcache.WriteReq_miss_rate::.cpu.data     0.079551                       # miss rate for WriteReq accesses
system.cpu.dcache.WriteReq_miss_rate::total     0.079551                       # miss rate for WriteReq accesses
system.cpu.dcache.WriteReq_avg_miss_latency::.cpu.data 59365.945035                       # average WriteReq miss latency
system.cpu.dcache.WriteReq_avg_miss_latency::total 59365.945035                       # average WriteReq miss latency
system.cpu.dcache.WriteReq_mshr_hits::.cpu.data        24149                       # number of WriteReq MSHR hits
system.cpu.dcache.WriteReq_mshr_hits::total        24149                       # number of WriteReq MSHR hits
system.cpu.dcache.WriteReq_mshr_misses::.cpu.data         9072                       # number of WriteReq MSHR misses
system.cpu.dcache.WriteReq_mshr_misses::total         9072                       # number of WriteReq MSHR misses
system.cpu.dcache.WriteReq_mshr_miss_latency::.cpu.data    691391940                       # number of WriteReq MSHR miss cycles
system.cpu.dcache.WriteReq_mshr_miss_latency::total    691391940                       # number of WriteReq MSHR miss cycles
system.cpu.dcache.WriteReq_mshr_miss_rate::.cpu.data     0.021724                       # mshr miss rate for WriteReq accesses
system.cpu.dcache.WriteReq_mshr_miss_rate::total     0.021724                       # mshr miss rate for WriteReq accesses
system.cpu.dcache.WriteReq_avg_mshr_miss_latency::.cpu.data 76211.633598                       # average WriteReq mshr miss latency
system.cpu.dcache.WriteReq_avg_mshr_miss_latency::total 76211.633598                       # average WriteReq mshr miss latency
system.cpu.dcache.SoftPFReq_hits::.cpu.data           52                       # number of SoftPFReq hits
system.cpu.dcache.SoftPFReq_hits::total            52                       # number of SoftPFReq hits
system.cpu.dcache.SoftPFReq_misses::.cpu.data            5                       # number of SoftPFReq misses
system.cpu.dcache.SoftPFReq_misses::total            5                       # number of SoftPFReq misses
system.cpu.dcache.SoftPFReq_accesses::.cpu.data           57                       # number of SoftPFReq accesses(hits+misses)
system.cpu.dcache.SoftPFReq_accesses::total           57                       # number of SoftPFReq accesses(hits+misses)
system.cpu.dcache.SoftPFReq_miss_rate::.cpu.data     0.087719                       # miss rate for SoftPFReq accesses
system.cpu.dcache.SoftPFReq_miss_rate::total     0.087719                       # miss rate for SoftPFReq accesses
system.cpu.dcache.SoftPFReq_mshr_misses::.cpu.data            2                       # number of SoftPFReq MSHR misses
system.cpu.dcache.SoftPFReq_mshr_misses::total            2                       # number of SoftPFReq MSHR misses
system.cpu.dcache.SoftPFReq_mshr_miss_latency::.cpu.data       184500                       # number of SoftPFReq MSHR miss cycles
system.cpu.dcache.SoftPFReq_mshr_miss_latency::total       184500                       # number of SoftPFReq MSHR miss cycles
system.cpu.dcache.SoftPFReq_mshr_miss_rate::.cpu.data     0.035088                       # mshr miss rate for SoftPFReq accesses
system.cpu.dcache.SoftPFReq_mshr_miss_rate::total     0.035088                       # mshr miss rate for SoftPFReq accesses
system.cpu.dcache.SoftPFReq_avg_mshr_miss_latency::.cpu.data        92250                       # average SoftPFReq mshr miss latency
system.cpu.dcache.SoftPFReq_avg_mshr_miss_latency::total        92250                       # average SoftPFReq mshr miss latency
system.cpu.dcache.WriteLineReq_hits::.cpu.data          289                       # number of WriteLineReq hits
system.cpu.dcache.WriteLineReq_hits::total          289                       # number of WriteLineReq hits
system.cpu.dcache.WriteLineReq_misses::.cpu.data        16629                       # number of WriteLineReq misses
system.cpu.dcache.WriteLineReq_misses::total        16629                       # number of WriteLineReq misses
system.cpu.dcache.WriteLineReq_miss_latency::.cpu.data    545759312                       # number of WriteLineReq miss cycles
system.cpu.dcache.WriteLineReq_miss_latency::total    545759312                       # number of WriteLineReq miss cycles
system.cpu.dcache.WriteLineReq_accesses::.cpu.data        16918                       # number of WriteLineReq accesses(hits+misses)
system.cpu.dcache.WriteLineReq_accesses::total        16918                       # number of WriteLineReq accesses(hits+misses)
system.cpu.dcache.WriteLineReq_miss_rate::.cpu.data     0.982918                       # miss rate for WriteLineReq accesses
system.cpu.dcache.WriteLineReq_miss_rate::total     0.982918                       # miss rate for WriteLineReq accesses
system.cpu.dcache.WriteLineReq_avg_miss_latency::.cpu.data 32819.731313                       # average WriteLineReq miss latency
system.cpu.dcache.WriteLineReq_avg_miss_latency::total 32819.731313                       # average WriteLineReq miss latency
system.cpu.dcache.WriteLineReq_mshr_misses::.cpu.data        16629                       # number of WriteLineReq MSHR misses
system.cpu.dcache.WriteLineReq_mshr_misses::total        16629                       # number of WriteLineReq MSHR misses
system.cpu.dcache.WriteLineReq_mshr_miss_latency::.cpu.data    529130312                       # number of WriteLineReq MSHR miss cycles
system.cpu.dcache.WriteLineReq_mshr_miss_latency::total    529130312                       # number of WriteLineReq MSHR miss cycles
system.cpu.dcache.WriteLineReq_mshr_miss_rate::.cpu.data     0.982918                       # mshr miss rate for WriteLineReq accesses
system.cpu.dcache.WriteLineReq_mshr_miss_rate::total     0.982918                       # mshr miss rate for WriteLineReq accesses
system.cpu.dcache.WriteLineReq_avg_mshr_miss_latency::.cpu.data 31819.731313                       # average WriteLineReq mshr miss latency
system.cpu.dcache.WriteLineReq_avg_mshr_miss_latency::total 31819.731313                       # average WriteLineReq mshr miss latency
system.cpu.dcache.LoadLockedReq_hits::.cpu.data          296                       # number of LoadLockedReq hits
system.cpu.dcache.LoadLockedReq_hits::total          296                       # number of LoadLockedReq hits
system.cpu.dcache.LoadLockedReq_misses::.cpu.data            6                       # number of LoadLockedReq misses
system.cpu.dcache.LoadLockedReq_misses::total            6                       # number of LoadLockedReq misses
system.cpu.dcache.LoadLockedReq_miss_latency::.cpu.data       382500                       # number of LoadLockedReq miss cycles
system.cpu.dcache.LoadLockedReq_miss_latency::total       382500                       # number of LoadLockedReq miss cycles
system.cpu.dcache.LoadLockedReq_accesses::.cpu.data          302                       # number of LoadLockedReq accesses(hits+misses)
system.cpu.dcache.LoadLockedReq_accesses::total          302                       # number of LoadLockedReq accesses(hits+misses)
system.cpu.dcache.LoadLockedReq_miss_rate::.cpu.data     0.019868                       # miss rate for LoadLockedReq accesses
system.cpu.dcache.LoadLockedReq_miss_rate::total     0.019868                       # miss rate for LoadLockedReq accesses
system.cpu.dcache.LoadLockedReq_avg_miss_latency::.cpu.data        63750                       # average LoadLockedReq miss latency
system.cpu.dcache.LoadLockedReq_avg_miss_latency::total        63750                       # average LoadLockedReq miss latency
system.cpu.dcache.LoadLockedReq_mshr_hits::.cpu.data            3                       # number of LoadLockedReq MSHR hits
system.cpu.dcache.LoadLockedReq_mshr_hits::total            3                       # number of LoadLockedReq MSHR hits
system.cpu.dcache.LoadLockedReq_mshr_misses::.cpu.data            3                       # number of LoadLockedReq MSHR misses
system.cpu.dcache.LoadLockedReq_mshr_misses::total            3                       # number of LoadLockedReq MSHR misses
system.cpu.dcache.LoadLockedReq_mshr_miss_latency::.cpu.data       124500                       # number of LoadLockedReq MSHR miss cycles
system.cpu.dcache.LoadLockedReq_mshr_miss_latency::total       124500                       # number of LoadLockedReq MSHR miss cycles
system.cpu.dcache.LoadLockedReq_mshr_miss_rate::.cpu.data     0.009934                       # mshr miss rate for LoadLockedReq accesses
system.cpu.dcache.LoadLockedReq_mshr_miss_rate::total     0.009934                       # mshr miss rate for LoadLockedReq accesses
system.cpu.dcache.LoadLockedReq_avg_mshr_miss_latency::.cpu.data        41500                       # average LoadLockedReq mshr miss latency
system.cpu.dcache.LoadLockedReq_avg_mshr_miss_latency::total        41500                       # average LoadLockedReq mshr miss latency
system.cpu.dcache.StoreCondReq_hits::.cpu.data          278                       # number of StoreCondReq hits
system.cpu.dcache.StoreCondReq_hits::total          278                       # number of StoreCondReq hits
system.cpu.dcache.StoreCondReq_accesses::.cpu.data          278                       # number of StoreCondReq accesses(hits+misses)
system.cpu.dcache.StoreCondReq_accesses::total          278                       # number of StoreCondReq accesses(hits+misses)
system.cpu.dcache.power_state.pwrStateResidencyTicks::UNDEFINED   1757549500                       # Cumulative time (in ticks) in various power states
system.cpu.dcache.tags.tagsinuse           969.389824                       # Cycle average of tags in use
system.cpu.dcache.tags.total_refs              890014                       # Total number of references to valid blocks.
system.cpu.dcache.tags.sampled_refs             26752                       # Sample count of references to valid blocks.
system.cpu.dcache.tags.avg_refs             33.269064                       # Average number of references to valid blocks.
system.cpu.dcache.tags.warmup_cycle            176500                       # Cycle when the warmup percentage was hit.
system.cpu.dcache.tags.occ_blocks::.cpu.data   969.389824                       # Average occupied blocks per requestor
system.cpu.dcache.tags.occ_percent::.cpu.data     0.946670                       # Average percentage of cache occupancy
system.cpu.dcache.tags.occ_percent::total     0.946670                       # Average percentage of cache occupancy
system.cpu.dcache.tags.occ_task_id_blocks::1024         1024                       # Occupied blocks per task id
system.cpu.dcache.tags.age_task_id_blocks_1024::0           61                       # Occupied blocks per task id
system.cpu.dcache.tags.age_task_id_blocks_1024::1          597                       # Occupied blocks per task id
system.cpu.dcache.tags.age_task_id_blocks_1024::2          366                       # Occupied blocks per task id
system.cpu.dcache.tags.occ_task_id_percent::1024            1                       # Percentage of cache occupancy per task id
system.cpu.dcache.tags.tag_accesses           1858508                       # Number of tag accesses
system.cpu.dcache.tags.data_accesses          1858508                       # Number of data accesses
system.cpu.dcache.tags.power_state.pwrStateResidencyTicks::UNDEFINED   1757549500                       # Cumulative time (in ticks) in various power states
system.cpu.power_state.pwrStateResidencyTicks::ON   1757549500                       # Cumulative time (in ticks) in various power states

---------- End Simulation Statistics   ----------
