
---------- Begin Simulation Statistics ----------
final_tick                                   67359500                       # Number of ticks from beginning of simulation (restored from checkpoints and never reset)
host_inst_rate                                 100861                       # Simulator instruction rate (inst/s)
host_mem_usage                                 885712                       # Number of bytes of host memory used
host_op_rate                                   123105                       # Simulator op (including micro ops) rate (op/s)
host_seconds                                     0.29                       # Real time elapsed on the host
host_tick_rate                              231296228                       # Simulator tick rate (ticks/s)
sim_freq                                 1000000000000                       # Frequency of simulated ticks
sim_insts                                       29355                       # Number of instructions simulated
sim_ops                                         35849                       # Number of ops (including micro ops) simulated
sim_seconds                                  0.000067                       # Number of seconds simulated
sim_ticks                                    67359500                       # Number of ticks simulated
system.cpu.branchPred.BTBCorrect                    0                       # Number of correct BTB predictions (this stat may not work properly.
system.cpu.branchPred.BTBHitPct             68.374436                       # BTB Hit Percentage
system.cpu.branchPred.BTBHits                    3937                       # Number of BTB hits
system.cpu.branchPred.BTBLookups                 5758                       # Number of BTB lookups
system.cpu.branchPred.RASInCorrect                  4                       # Number of incorrect RAS predictions.
system.cpu.branchPred.condIncorrect              1550                       # Number of conditional branches incorrect
system.cpu.branchPred.condPredicted              9145                       # Number of conditional branches predicted
system.cpu.branchPred.indirectHits                 50                       # Number of indirect target hits.
system.cpu.branchPred.indirectLookups             458                       # Number of indirect predictor lookups.
system.cpu.branchPred.indirectMisses              408                       # Number of indirect misses.
system.cpu.branchPred.lookups                   12866                       # Number of BP lookups
system.cpu.branchPred.usedRAS                    1076                       # Number of times the RAS was used to get a target.
system.cpu.branchPredindirectMispredicted          126                       # Number of mispredicted indirect branches.
system.cpu.cc_regfile_reads                     10678                       # number of cc regfile reads
system.cpu.cc_regfile_writes                    10470                       # number of cc regfile writes
system.cpu.commit.amos                              0                       # Number of atomic instructions committed
system.cpu.commit.branchMispredicts              1048                       # The number of times a branch was mispredicted
system.cpu.commit.branches                       6765                       # Number of branches committed
system.cpu.commit.bw_lim_events                  1209                       # number cycles where commit BW limit reached
system.cpu.commit.commitNonSpecStalls              48                       # The number of times commit has been forced to stall to communicate backwards
system.cpu.commit.commitSquashedInsts           16368                       # The number of squashed insts skipped by commit
system.cpu.commit.committedInsts                29435                       # Number of instructions committed
system.cpu.commit.committedOps                  35929                       # Number of ops (including micro ops) committed
system.cpu.commit.committed_per_cycle::samples        54754                       # Number of insts commited each cycle
system.cpu.commit.committed_per_cycle::mean     0.656190                       # Number of insts commited each cycle
system.cpu.commit.committed_per_cycle::stdev     1.653084                       # Number of insts commited each cycle
system.cpu.commit.committed_per_cycle::underflows            0      0.00%      0.00% # Number of insts commited each cycle
system.cpu.commit.committed_per_cycle::0        42866     78.29%     78.29% # Number of insts commited each cycle
system.cpu.commit.committed_per_cycle::1         4464      8.15%     86.44% # Number of insts commited each cycle
system.cpu.commit.committed_per_cycle::2         2267      4.14%     90.58% # Number of insts commited each cycle
system.cpu.commit.committed_per_cycle::3         1375      2.51%     93.09% # Number of insts commited each cycle
system.cpu.commit.committed_per_cycle::4          922      1.68%     94.78% # Number of insts commited each cycle
system.cpu.commit.committed_per_cycle::5          854      1.56%     96.34% # Number of insts commited each cycle
system.cpu.commit.committed_per_cycle::6          403      0.74%     97.07% # Number of insts commited each cycle
system.cpu.commit.committed_per_cycle::7          394      0.72%     97.79% # Number of insts commited each cycle
system.cpu.commit.committed_per_cycle::8         1209      2.21%    100.00% # Number of insts commited each cycle
system.cpu.commit.committed_per_cycle::overflows            0      0.00%    100.00% # Number of insts commited each cycle
system.cpu.commit.committed_per_cycle::min_value            0                       # Number of insts commited each cycle
system.cpu.commit.committed_per_cycle::max_value            8                       # Number of insts commited each cycle
system.cpu.commit.committed_per_cycle::total        54754                       # Number of insts commited each cycle
system.cpu.commit.fp_insts                          0                       # Number of committed floating point instructions.
system.cpu.commit.function_calls                  609                       # Number of function calls committed.
system.cpu.commit.int_insts                     32730                       # Number of committed integer instructions.
system.cpu.commit.loads                          5438                       # Number of loads committed
system.cpu.commit.membars                          24                       # Number of memory barriers committed
system.cpu.commit.op_class_0::No_OpClass            7      0.02%      0.02% # Class of committed instruction
system.cpu.commit.op_class_0::IntAlu            24199     67.35%     67.37% # Class of committed instruction
system.cpu.commit.op_class_0::IntMult              53      0.15%     67.52% # Class of committed instruction
system.cpu.commit.op_class_0::IntDiv                6      0.02%     67.54% # Class of committed instruction
system.cpu.commit.op_class_0::FloatAdd              0      0.00%     67.54% # Class of committed instruction
system.cpu.commit.op_class_0::FloatCmp              0      0.00%     67.54% # Class of committed instruction
system.cpu.commit.op_class_0::FloatCvt              0      0.00%     67.54% # Class of committed instruction
system.cpu.commit.op_class_0::FloatMult             0      0.00%     67.54% # Class of committed instruction
system.cpu.commit.op_class_0::FloatMultAcc            0      0.00%     67.54% # Class of committed instruction
system.cpu.commit.op_class_0::FloatDiv              0      0.00%     67.54% # Class of committed instruction
system.cpu.commit.op_class_0::FloatMisc             0      0.00%     67.54% # Class of committed instruction
system.cpu.commit.op_class_0::FloatSqrt             0      0.00%     67.54% # Class of committed instruction
system.cpu.commit.op_class_0::SimdAdd              26      0.07%     67.61% # Class of committed instruction
system.cpu.commit.op_class_0::SimdAddAcc            0      0.00%     67.61% # Class of committed instruction
system.cpu.commit.op_class_0::SimdAlu              32      0.09%     67.70% # Class of committed instruction
system.cpu.commit.op_class_0::SimdCmp              28      0.08%     67.78% # Class of committed instruction
system.cpu.commit.op_class_0::SimdCvt               0      0.00%     67.78% # Class of committed instruction
system.cpu.commit.op_class_0::SimdMisc             38      0.11%     67.88% # Class of committed instruction
system.cpu.commit.op_class_0::SimdMult              0      0.00%     67.88% # Class of committed instruction
system.cpu.commit.op_class_0::SimdMultAcc            0      0.00%     67.88% # Class of committed instruction
system.cpu.commit.op_class_0::SimdShift             0      0.00%     67.88% # Class of committed instruction
system.cpu.commit.op_class_0::SimdShiftAcc            0      0.00%     67.88% # Class of committed instruction
system.cpu.commit.op_class_0::SimdDiv               0      0.00%     67.88% # Class of committed instruction
system.cpu.commit.op_class_0::SimdSqrt              0      0.00%     67.88% # Class of committed instruction
system.cpu.commit.op_class_0::SimdFloatAdd            0      0.00%     67.88% # Class of committed instruction
system.cpu.commit.op_class_0::SimdFloatAlu            0      0.00%     67.88% # Class of committed instruction
system.cpu.commit.op_class_0::SimdFloatCmp            0      0.00%     67.88% # Class of committed instruction
system.cpu.commit.op_class_0::SimdFloatCvt            0      0.00%     67.88% # Class of committed instruction
system.cpu.commit.op_class_0::SimdFloatDiv            0      0.00%     67.88% # Class of committed instruction
system.cpu.commit.op_class_0::SimdFloatMisc            0      0.00%     67.88% # Class of committed instruction
system.cpu.commit.op_class_0::SimdFloatMult            0      0.00%     67.88% # Class of committed instruction
system.cpu.commit.op_class_0::SimdFloatMultAcc            0      0.00%     67.88% # Class of committed instruction
system.cpu.commit.op_class_0::SimdFloatSqrt            0      0.00%     67.88% # Class of committed instruction
system.cpu.commit.op_class_0::SimdReduceAdd            0      0.00%     67.88% # Class of committed instruction
system.cpu.commit.op_class_0::SimdReduceAlu            0      0.00%     67.88% # Class of committed instruction
system.cpu.commit.op_class_0::SimdReduceCmp            0      0.00%     67.88% # Class of committed instruction
system.cpu.commit.op_class_0::SimdFloatReduceAdd            0      0.00%     67.88% # Class of committed instruction
system.cpu.commit.op_class_0::SimdFloatReduceCmp            0      0.00%     67.88% # Class of committed instruction
system.cpu.commit.op_class_0::SimdAes               0      0.00%     67.88% # Class of committed instruction
system.cpu.commit.op_class_0::SimdAesMix            0      0.00%     67.88% # Class of committed instruction
system.cpu.commit.op_class_0::SimdSha1Hash            0      0.00%     67.88% # Class of committed instruction
system.cpu.commit.op_class_0::SimdSha1Hash2            0      0.00%     67.88% # Class of committed instruction
system.cpu.commit.op_class_0::SimdSha256Hash            0      0.00%     67.88% # Class of committed instruction
system.cpu.commit.op_class_0::SimdSha256Hash2            0      0.00%     67.88% # Class of committed instruction
system.cpu.commit.op_class_0::SimdShaSigma2            0      0.00%     67.88% # Class of committed instruction
system.cpu.commit.op_class_0::SimdShaSigma3            0      0.00%     67.88% # Class of committed instruction
system.cpu.commit.op_class_0::SimdPredAlu            0      0.00%     67.88% # Class of committed instruction
system.cpu.commit.op_class_0::MemRead            5438     15.14%     83.02% # Class of committed instruction
system.cpu.commit.op_class_0::MemWrite           6102     16.98%    100.00% # Class of committed instruction
system.cpu.commit.op_class_0::FloatMemRead            0      0.00%    100.00% # Class of committed instruction
system.cpu.commit.op_class_0::FloatMemWrite            0      0.00%    100.00% # Class of committed instruction
system.cpu.commit.op_class_0::IprAccess             0      0.00%    100.00% # Class of committed instruction
system.cpu.commit.op_class_0::InstPrefetch            0      0.00%    100.00% # Class of committed instruction
system.cpu.commit.op_class_0::total             35929                       # Class of committed instruction
system.cpu.commit.refs                          11540                       # Number of memory references committed
system.cpu.commit.swp_count                         0                       # Number of s/w prefetches committed
system.cpu.commit.vec_insts                       477                       # Number of committed Vector instructions.
system.cpu.committedInsts                       29355                       # Number of Instructions Simulated
system.cpu.committedOps                         35849                       # Number of Ops (including micro ops) Simulated
system.cpu.cpi                               4.589337                       # CPI: Cycles Per Instruction
system.cpu.cpi_total                         4.589337                       # CPI: Total CPI of All Threads
system.cpu.decode.BlockedCycles                 12845                       # Number of cycles decode is blocked
system.cpu.decode.BranchMispred                   514                       # Number of times decode detected a branch misprediction
system.cpu.decode.BranchResolved                 4186                       # Number of times decode resolved a branch
system.cpu.decode.DecodedInsts                  58360                       # Number of instructions handled by decode
system.cpu.decode.IdleCycles                    32895                       # Number of cycles decode is idle
system.cpu.decode.RunCycles                      9839                       # Number of cycles decode is running
system.cpu.decode.SquashCycles                   1089                       # Number of cycles decode is squashing
system.cpu.decode.SquashedInsts                  1738                       # Number of squashed instructions handled by decode
system.cpu.decode.UnblockCycles                   798                       # Number of cycles decode is unblocking
system.cpu.dtb.accesses                             0                       # DTB accesses
system.cpu.dtb.align_faults                         0                       # Number of TLB faults due to alignment restrictions
system.cpu.dtb.domain_faults                        0                       # Number of TLB faults due to domain restrictions
system.cpu.dtb.flush_entries                        0                       # Number of entries that have been flushed from TLB
system.cpu.dtb.flush_tlb                            0                       # Number of times complete TLB was flushed
system.cpu.dtb.flush_tlb_asid                       0                       # Number of times TLB was flushed by ASID
system.cpu.dtb.flush_tlb_mva                        0                       # Number of times TLB was flushed by MVA
system.cpu.dtb.flush_tlb_mva_asid                   0                       # Number of times TLB was flushed by MVA & ASID
system.cpu.dtb.hits                                 0                       # DTB hits
system.cpu.dtb.inst_accesses                        0                       # ITB inst accesses
system.cpu.dtb.inst_hits                            0                       # ITB inst hits
system.cpu.dtb.inst_misses                          0                       # ITB inst misses
system.cpu.dtb.misses                               0                       # DTB misses
system.cpu.dtb.perms_faults                         0                       # Number of TLB faults due to permissions restrictions
system.cpu.dtb.prefetch_faults                      0                       # Number of TLB faults due to prefetch
system.cpu.dtb.read_accesses                        0                       # DTB read accesses
system.cpu.dtb.read_hits                            0                       # DTB read hits
system.cpu.dtb.read_misses                          0                       # DTB read misses
system.cpu.dtb.stage2_mmu.stage2_tlb.accesses            0                       # DTB accesses
system.cpu.dtb.stage2_mmu.stage2_tlb.align_faults            0                       # Number of TLB faults due to alignment restrictions
system.cpu.dtb.stage2_mmu.stage2_tlb.domain_faults            0                       # Number of TLB faults due to domain restrictions
system.cpu.dtb.stage2_mmu.stage2_tlb.flush_entries            0                       # Number of entries that have been flushed from TLB
system.cpu.dtb.stage2_mmu.stage2_tlb.flush_tlb            0                       # Number of times complete TLB was flushed
system.cpu.dtb.stage2_mmu.stage2_tlb.flush_tlb_asid            0                       # Number of times TLB was flushed by ASID
system.cpu.dtb.stage2_mmu.stage2_tlb.flush_tlb_mva            0                       # Number of times TLB was flushed by MVA
system.cpu.dtb.stage2_mmu.stage2_tlb.flush_tlb_mva_asid            0                       # Number of times TLB was flushed by MVA & ASID
system.cpu.dtb.stage2_mmu.stage2_tlb.hits            0                       # DTB hits
system.cpu.dtb.stage2_mmu.stage2_tlb.inst_accesses            0                       # ITB inst accesses
system.cpu.dtb.stage2_mmu.stage2_tlb.inst_hits            0                       # ITB inst hits
system.cpu.dtb.stage2_mmu.stage2_tlb.inst_misses            0                       # ITB inst misses
system.cpu.dtb.stage2_mmu.stage2_tlb.misses            0                       # DTB misses
system.cpu.dtb.stage2_mmu.stage2_tlb.perms_faults            0                       # Number of TLB faults due to permissions restrictions
system.cpu.dtb.stage2_mmu.stage2_tlb.prefetch_faults            0                       # Number of TLB faults due to prefetch
system.cpu.dtb.stage2_mmu.stage2_tlb.read_accesses            0                       # DTB read accesses
system.cpu.dtb.stage2_mmu.stage2_tlb.read_hits            0                       # DTB read hits
system.cpu.dtb.stage2_mmu.stage2_tlb.read_misses            0                       # DTB read misses
system.cpu.dtb.stage2_mmu.stage2_tlb.walker.walkRequestOrigin_Requested::Data            0                       # Table walker requests started/completed, data/inst
system.cpu.dtb.stage2_mmu.stage2_tlb.walker.walkRequestOrigin_Requested::Inst            0                       # Table walker requests started/completed, data/inst
system.cpu.dtb.stage2_mmu.stage2_tlb.walker.walkRequestOrigin_Requested::total            0                       # Table walker requests started/completed, data/inst
system.cpu.dtb.stage2_mmu.stage2_tlb.walker.walkRequestOrigin_Completed::Data            0                       # Table walker requests started/completed, data/inst
system.cpu.dtb.stage2_mmu.stage2_tlb.walker.walkRequestOrigin_Completed::Inst            0                       # Table walker requests started/completed, data/inst
system.cpu.dtb.stage2_mmu.stage2_tlb.walker.walkRequestOrigin_Completed::total            0                       # Table walker requests started/completed, data/inst
system.cpu.dtb.stage2_mmu.stage2_tlb.walker.walkRequestOrigin::total            0                       # Table walker requests started/completed, data/inst
system.cpu.dtb.stage2_mmu.stage2_tlb.walker.walks            0                       # Table walker walks requested
system.cpu.dtb.stage2_mmu.stage2_tlb.write_accesses            0                       # DTB write accesses
system.cpu.dtb.stage2_mmu.stage2_tlb.write_hits            0                       # DTB write hits
system.cpu.dtb.stage2_mmu.stage2_tlb.write_misses            0                       # DTB write misses
system.cpu.dtb.walker.walkRequestOrigin_Requested::Data            0                       # Table walker requests started/completed, data/inst
system.cpu.dtb.walker.walkRequestOrigin_Requested::Inst            0                       # Table walker requests started/completed, data/inst
system.cpu.dtb.walker.walkRequestOrigin_Requested::total            0                       # Table walker requests started/completed, data/inst
system.cpu.dtb.walker.walkRequestOrigin_Completed::Data            0                       # Table walker requests started/completed, data/inst
system.cpu.dtb.walker.walkRequestOrigin_Completed::Inst            0                       # Table walker requests started/completed, data/inst
system.cpu.dtb.walker.walkRequestOrigin_Completed::total            0                       # Table walker requests started/completed, data/inst
system.cpu.dtb.walker.walkRequestOrigin::total            0                       # Table walker requests started/completed, data/inst
system.cpu.dtb.walker.walks                         0                       # Table walker walks requested
system.cpu.dtb.write_accesses                       0                       # DTB write accesses
system.cpu.dtb.write_hits                           0                       # DTB write hits
system.cpu.dtb.write_misses                         0                       # DTB write misses
system.cpu.fetch.Branches                       12866                       # Number of branches that fetch encountered
system.cpu.fetch.CacheLines                      8078                       # Number of cache lines fetched
system.cpu.fetch.Cycles                         18134                       # Number of cycles fetch has run and was not squashing or blocked
system.cpu.fetch.IcacheSquashes                  1034                       # Number of outstanding Icache misses that were squashed
system.cpu.fetch.Insts                          55884                       # Number of instructions fetch has processed
system.cpu.fetch.SquashCycles                    3182                       # Number of cycles fetch has spent squashing
system.cpu.fetch.branchRate                  0.095502                       # Number of branch fetches per cycle
system.cpu.fetch.icacheStallCycles              37741                       # Number of cycles fetch is stalled on an Icache miss
system.cpu.fetch.predictedBranches               5063                       # Number of branches that fetch has predicted taken
system.cpu.fetch.rate                        0.414816                       # Number of inst fetches per cycle
system.cpu.fetch.rateDist::samples              57466                       # Number of instructions fetched each cycle (Total)
system.cpu.fetch.rateDist::mean              1.163575                       # Number of instructions fetched each cycle (Total)
system.cpu.fetch.rateDist::stdev             2.519395                       # Number of instructions fetched each cycle (Total)
system.cpu.fetch.rateDist::underflows               0      0.00%      0.00% # Number of instructions fetched each cycle (Total)
system.cpu.fetch.rateDist::0                    45188     78.63%     78.63% # Number of instructions fetched each cycle (Total)
system.cpu.fetch.rateDist::1                     1025      1.78%     80.42% # Number of instructions fetched each cycle (Total)
system.cpu.fetch.rateDist::2                     1229      2.14%     82.56% # Number of instructions fetched each cycle (Total)
system.cpu.fetch.rateDist::3                     1099      1.91%     84.47% # Number of instructions fetched each cycle (Total)
system.cpu.fetch.rateDist::4                     1457      2.54%     87.00% # Number of instructions fetched each cycle (Total)
system.cpu.fetch.rateDist::5                      993      1.73%     88.73% # Number of instructions fetched each cycle (Total)
system.cpu.fetch.rateDist::6                      895      1.56%     90.29% # Number of instructions fetched each cycle (Total)
system.cpu.fetch.rateDist::7                      717      1.25%     91.54% # Number of instructions fetched each cycle (Total)
system.cpu.fetch.rateDist::8                     4863      8.46%    100.00% # Number of instructions fetched each cycle (Total)
system.cpu.fetch.rateDist::overflows                0      0.00%    100.00% # Number of instructions fetched each cycle (Total)
system.cpu.fetch.rateDist::min_value                0                       # Number of instructions fetched each cycle (Total)
system.cpu.fetch.rateDist::max_value                8                       # Number of instructions fetched each cycle (Total)
system.cpu.fetch.rateDist::total                57466                       # Number of instructions fetched each cycle (Total)
system.cpu.icache.prefetcher.num_hwpf_issued            0                       # number of hwpf issued
system.cpu.icache.prefetcher.pfBufferHit            0                       # number of redundant prefetches already in prefetch queue
system.cpu.icache.prefetcher.pfIdentified            0                       # number of prefetch candidates identified
system.cpu.icache.prefetcher.pfInCache              0                       # number of redundant prefetches already in cache/mshr dropped
system.cpu.icache.prefetcher.pfRemovedFull            0                       # number of prefetches dropped due to prefetch queue size
system.cpu.icache.prefetcher.pfSpanPage             0                       # number of prefetches that crossed the page
system.cpu.idleCycles                           77254                       # Total number of cycles that the CPU has spent unscheduled due to idling
system.cpu.iew.branchMispredicts                 1231                       # Number of branch mispredicts detected at execute
system.cpu.iew.exec_branches                     8325                       # Number of branches executed
system.cpu.iew.exec_nop                           159                       # number of nop insts executed
system.cpu.iew.exec_rate                     0.343936                       # Inst execution rate
system.cpu.iew.exec_refs                        14633                       # number of memory reference insts executed
system.cpu.iew.exec_stores                       7145                       # Number of stores executed
system.cpu.iew.exec_swp                             0                       # number of swp insts executed
system.cpu.iew.iewBlockCycles                    2473                       # Number of cycles IEW is blocking
system.cpu.iew.iewDispLoadInsts                  8092                       # Number of dispatched load instructions
system.cpu.iew.iewDispNonSpecInsts                 75                       # Number of dispatched non-speculative instructions
system.cpu.iew.iewDispSquashedInsts               253                       # Number of squashed instructions skipped by dispatch
system.cpu.iew.iewDispStoreInsts                 8533                       # Number of dispatched store instructions
system.cpu.iew.iewDispatchedInsts               52369                       # Number of instructions dispatched to IQ
system.cpu.iew.iewExecLoadInsts                  7488                       # Number of load instructions executed
system.cpu.iew.iewExecSquashedInsts              1513                       # Number of squashed instructions skipped in execute
system.cpu.iew.iewExecutedInsts                 46335                       # Number of executed instructions
system.cpu.iew.iewIQFullEvents                     10                       # Number of times the IQ has become full, causing a stall
system.cpu.iew.iewIdleCycles                        0                       # Number of cycles IEW is idle
system.cpu.iew.iewLSQFullEvents                   518                       # Number of times the LSQ has become full, causing a stall
system.cpu.iew.iewSquashCycles                   1089                       # Number of cycles IEW is squashing
system.cpu.iew.iewUnblockCycles                   523                       # Number of cycles IEW is unblocking
system.cpu.iew.lsq.thread0.blockedLoads             0                       # Number of blocked loads due to partial load-store forwarding
system.cpu.iew.lsq.thread0.cacheBlocked             0                       # Number of times an access to memory failed due to the cache being blocked
system.cpu.iew.lsq.thread0.forwLoads               85                       # Number of loads that had data forwarded from stores
system.cpu.iew.lsq.thread0.ignoredResponses            5                       # Number of memory responses ignored because the instruction is squashed
system.cpu.iew.lsq.thread0.invAddrLoads             0                       # Number of loads ignored due to an invalid address
system.cpu.iew.lsq.thread0.invAddrSwpfs             0                       # Number of software prefetches ignored due to an invalid address
system.cpu.iew.lsq.thread0.memOrderViolation           23                       # Number of memory ordering violations
system.cpu.iew.lsq.thread0.rescheduledLoads          128                       # Number of loads that were rescheduled
system.cpu.iew.lsq.thread0.squashedLoads         2654                       # Number of loads squashed
system.cpu.iew.lsq.thread0.squashedStores         2431                       # Number of stores squashed
system.cpu.iew.memOrderViolationEvents             23                       # Number of memory order violations
system.cpu.iew.predictedNotTakenIncorrect         1087                       # Number of branches that were predicted not taken incorrectly
system.cpu.iew.predictedTakenIncorrect            144                       # Number of branches that were predicted taken incorrectly
system.cpu.iew.wb_consumers                     39238                       # num instructions consuming a value
system.cpu.iew.wb_count                         44776                       # cumulative count of insts written-back
system.cpu.iew.wb_fanout                     0.566084                       # average fanout of values written-back
system.cpu.iew.wb_producers                     22212                       # num instructions producing a value
system.cpu.iew.wb_rate                       0.332363                       # insts written-back per cycle
system.cpu.iew.wb_sent                          45619                       # cumulative count of insts sent to commit
system.cpu.int_regfile_reads                    51634                       # number of integer regfile reads
system.cpu.int_regfile_writes                   31864                       # number of integer regfile writes
system.cpu.ipc                               0.217896                       # IPC: Instructions Per Cycle
system.cpu.ipc_total                         0.217896                       # IPC: Total IPC of All Threads
system.cpu.iq.FU_type_0::No_OpClass                 9      0.02%      0.02% # Type of FU issued
system.cpu.iq.FU_type_0::IntAlu                 32220     67.34%     67.36% # Type of FU issued
system.cpu.iq.FU_type_0::IntMult                   55      0.11%     67.47% # Type of FU issued
system.cpu.iq.FU_type_0::IntDiv                     7      0.01%     67.49% # Type of FU issued
system.cpu.iq.FU_type_0::FloatAdd                   0      0.00%     67.49% # Type of FU issued
system.cpu.iq.FU_type_0::FloatCmp                   0      0.00%     67.49% # Type of FU issued
system.cpu.iq.FU_type_0::FloatCvt                   0      0.00%     67.49% # Type of FU issued
system.cpu.iq.FU_type_0::FloatMult                  0      0.00%     67.49% # Type of FU issued
system.cpu.iq.FU_type_0::FloatMultAcc               0      0.00%     67.49% # Type of FU issued
system.cpu.iq.FU_type_0::FloatDiv                   0      0.00%     67.49% # Type of FU issued
system.cpu.iq.FU_type_0::FloatMisc                  1      0.00%     67.49% # Type of FU issued
system.cpu.iq.FU_type_0::FloatSqrt                  0      0.00%     67.49% # Type of FU issued
system.cpu.iq.FU_type_0::SimdAdd                   35      0.07%     67.56% # Type of FU issued
system.cpu.iq.FU_type_0::SimdAddAcc                 0      0.00%     67.56% # Type of FU issued
system.cpu.iq.FU_type_0::SimdAlu                   41      0.09%     67.65% # Type of FU issued
system.cpu.iq.FU_type_0::SimdCmp                   36      0.08%     67.72% # Type of FU issued
system.cpu.iq.FU_type_0::SimdCvt                    0      0.00%     67.72% # Type of FU issued
system.cpu.iq.FU_type_0::SimdMisc                  47      0.10%     67.82% # Type of FU issued
system.cpu.iq.FU_type_0::SimdMult                   0      0.00%     67.82% # Type of FU issued
system.cpu.iq.FU_type_0::SimdMultAcc                0      0.00%     67.82% # Type of FU issued
system.cpu.iq.FU_type_0::SimdShift                  0      0.00%     67.82% # Type of FU issued
system.cpu.iq.FU_type_0::SimdShiftAcc               0      0.00%     67.82% # Type of FU issued
system.cpu.iq.FU_type_0::SimdDiv                    0      0.00%     67.82% # Type of FU issued
system.cpu.iq.FU_type_0::SimdSqrt                   0      0.00%     67.82% # Type of FU issued
system.cpu.iq.FU_type_0::SimdFloatAdd               0      0.00%     67.82% # Type of FU issued
system.cpu.iq.FU_type_0::SimdFloatAlu               0      0.00%     67.82% # Type of FU issued
system.cpu.iq.FU_type_0::SimdFloatCmp               0      0.00%     67.82% # Type of FU issued
system.cpu.iq.FU_type_0::SimdFloatCvt               0      0.00%     67.82% # Type of FU issued
system.cpu.iq.FU_type_0::SimdFloatDiv               0      0.00%     67.82% # Type of FU issued
system.cpu.iq.FU_type_0::SimdFloatMisc              0      0.00%     67.82% # Type of FU issued
system.cpu.iq.FU_type_0::SimdFloatMult              0      0.00%     67.82% # Type of FU issued
system.cpu.iq.FU_type_0::SimdFloatMultAcc            0      0.00%     67.82% # Type of FU issued
system.cpu.iq.FU_type_0::SimdFloatSqrt              0      0.00%     67.82% # Type of FU issued
system.cpu.iq.FU_type_0::SimdReduceAdd              0      0.00%     67.82% # Type of FU issued
system.cpu.iq.FU_type_0::SimdReduceAlu              0      0.00%     67.82% # Type of FU issued
system.cpu.iq.FU_type_0::SimdReduceCmp              0      0.00%     67.82% # Type of FU issued
system.cpu.iq.FU_type_0::SimdFloatReduceAdd            0      0.00%     67.82% # Type of FU issued
system.cpu.iq.FU_type_0::SimdFloatReduceCmp            0      0.00%     67.82% # Type of FU issued
system.cpu.iq.FU_type_0::SimdAes                    0      0.00%     67.82% # Type of FU issued
system.cpu.iq.FU_type_0::SimdAesMix                 0      0.00%     67.82% # Type of FU issued
system.cpu.iq.FU_type_0::SimdSha1Hash               0      0.00%     67.82% # Type of FU issued
system.cpu.iq.FU_type_0::SimdSha1Hash2              0      0.00%     67.82% # Type of FU issued
system.cpu.iq.FU_type_0::SimdSha256Hash             0      0.00%     67.82% # Type of FU issued
system.cpu.iq.FU_type_0::SimdSha256Hash2            0      0.00%     67.82% # Type of FU issued
system.cpu.iq.FU_type_0::SimdShaSigma2              0      0.00%     67.82% # Type of FU issued
system.cpu.iq.FU_type_0::SimdShaSigma3              0      0.00%     67.82% # Type of FU issued
system.cpu.iq.FU_type_0::SimdPredAlu                0      0.00%     67.82% # Type of FU issued
system.cpu.iq.FU_type_0::MemRead                 7820     16.34%     84.16% # Type of FU issued
system.cpu.iq.FU_type_0::MemWrite                7577     15.84%    100.00% # Type of FU issued
system.cpu.iq.FU_type_0::FloatMemRead               0      0.00%    100.00% # Type of FU issued
system.cpu.iq.FU_type_0::FloatMemWrite              0      0.00%    100.00% # Type of FU issued
system.cpu.iq.FU_type_0::IprAccess                  0      0.00%    100.00% # Type of FU issued
system.cpu.iq.FU_type_0::InstPrefetch               0      0.00%    100.00% # Type of FU issued
system.cpu.iq.FU_type_0::total                  47848                       # Type of FU issued
system.cpu.iq.fp_alu_accesses                       0                       # Number of floating point alu accesses
system.cpu.iq.fp_inst_queue_reads                   0                       # Number of floating instruction queue reads
system.cpu.iq.fp_inst_queue_wakeup_accesses            0                       # Number of floating instruction queue wakeup accesses
system.cpu.iq.fp_inst_queue_writes                  0                       # Number of floating instruction queue writes
system.cpu.iq.fu_busy_cnt                         692                       # FU busy when requested
system.cpu.iq.fu_busy_rate                   0.014462                       # FU busy rate (busy events/executed inst)
system.cpu.iq.fu_full::No_OpClass                   0      0.00%      0.00% # attempts to use FU when none available
system.cpu.iq.fu_full::IntAlu                     238     34.39%     34.39% # attempts to use FU when none available
system.cpu.iq.fu_full::IntMult                      0      0.00%     34.39% # attempts to use FU when none available
system.cpu.iq.fu_full::IntDiv                       0      0.00%     34.39% # attempts to use FU when none available
system.cpu.iq.fu_full::FloatAdd                     0      0.00%     34.39% # attempts to use FU when none available
system.cpu.iq.fu_full::FloatCmp                     0      0.00%     34.39% # attempts to use FU when none available
system.cpu.iq.fu_full::FloatCvt                     0      0.00%     34.39% # attempts to use FU when none available
system.cpu.iq.fu_full::FloatMult                    0      0.00%     34.39% # attempts to use FU when none available
system.cpu.iq.fu_full::FloatMultAcc                 0      0.00%     34.39% # attempts to use FU when none available
system.cpu.iq.fu_full::FloatDiv                     0      0.00%     34.39% # attempts to use FU when none available
system.cpu.iq.fu_full::FloatMisc                    0      0.00%     34.39% # attempts to use FU when none available
system.cpu.iq.fu_full::FloatSqrt                    0      0.00%     34.39% # attempts to use FU when none available
system.cpu.iq.fu_full::SimdAdd                      0      0.00%     34.39% # attempts to use FU when none available
system.cpu.iq.fu_full::SimdAddAcc                   0      0.00%     34.39% # attempts to use FU when none available
system.cpu.iq.fu_full::SimdAlu                      2      0.29%     34.68% # attempts to use FU when none available
system.cpu.iq.fu_full::SimdCmp                      3      0.43%     35.12% # attempts to use FU when none available
system.cpu.iq.fu_full::SimdCvt                      0      0.00%     35.12% # attempts to use FU when none available
system.cpu.iq.fu_full::SimdMisc                     0      0.00%     35.12% # attempts to use FU when none available
system.cpu.iq.fu_full::SimdMult                     0      0.00%     35.12% # attempts to use FU when none available
system.cpu.iq.fu_full::SimdMultAcc                  0      0.00%     35.12% # attempts to use FU when none available
system.cpu.iq.fu_full::SimdShift                    0      0.00%     35.12% # attempts to use FU when none available
system.cpu.iq.fu_full::SimdShiftAcc                 0      0.00%     35.12% # attempts to use FU when none available
system.cpu.iq.fu_full::SimdDiv                      0      0.00%     35.12% # attempts to use FU when none available
system.cpu.iq.fu_full::SimdSqrt                     0      0.00%     35.12% # attempts to use FU when none available
system.cpu.iq.fu_full::SimdFloatAdd                 0      0.00%     35.12% # attempts to use FU when none available
system.cpu.iq.fu_full::SimdFloatAlu                 0      0.00%     35.12% # attempts to use FU when none available
system.cpu.iq.fu_full::SimdFloatCmp                 0      0.00%     35.12% # attempts to use FU when none available
system.cpu.iq.fu_full::SimdFloatCvt                 0      0.00%     35.12% # attempts to use FU when none available
system.cpu.iq.fu_full::SimdFloatDiv                 0      0.00%     35.12% # attempts to use FU when none available
system.cpu.iq.fu_full::SimdFloatMisc                0      0.00%     35.12% # attempts to use FU when none available
system.cpu.iq.fu_full::SimdFloatMult                0      0.00%     35.12% # attempts to use FU when none available
system.cpu.iq.fu_full::SimdFloatMultAcc             0      0.00%     35.12% # attempts to use FU when none available
system.cpu.iq.fu_full::SimdFloatSqrt                0      0.00%     35.12% # attempts to use FU when none available
system.cpu.iq.fu_full::SimdReduceAdd                0      0.00%     35.12% # attempts to use FU when none available
system.cpu.iq.fu_full::SimdReduceAlu                0      0.00%     35.12% # attempts to use FU when none available
system.cpu.iq.fu_full::SimdReduceCmp                0      0.00%     35.12% # attempts to use FU when none available
system.cpu.iq.fu_full::SimdFloatReduceAdd            0      0.00%     35.12% # attempts to use FU when none available
system.cpu.iq.fu_full::SimdFloatReduceCmp            0      0.00%     35.12% # attempts to use FU when none available
system.cpu.iq.fu_full::SimdAes                      0      0.00%     35.12% # attempts to use FU when none available
system.cpu.iq.fu_full::SimdAesMix                   0      0.00%     35.12% # attempts to use FU when none available
system.cpu.iq.fu_full::SimdSha1Hash                 0      0.00%     35.12% # attempts to use FU when none available
system.cpu.iq.fu_full::SimdSha1Hash2                0      0.00%     35.12% # attempts to use FU when none available
system.cpu.iq.fu_full::SimdSha256Hash               0      0.00%     35.12% # attempts to use FU when none available
system.cpu.iq.fu_full::SimdSha256Hash2              0      0.00%     35.12% # attempts to use FU when none available
system.cpu.iq.fu_full::SimdShaSigma2                0      0.00%     35.12% # attempts to use FU when none available
system.cpu.iq.fu_full::SimdShaSigma3                0      0.00%     35.12% # attempts to use FU when none available
system.cpu.iq.fu_full::SimdPredAlu                  0      0.00%     35.12% # attempts to use FU when none available
system.cpu.iq.fu_full::MemRead                    163     23.55%     58.67% # attempts to use FU when none available
system.cpu.iq.fu_full::MemWrite                   286     41.33%    100.00% # attempts to use FU when none available
system.cpu.iq.fu_full::FloatMemRead                 0      0.00%    100.00% # attempts to use FU when none available
system.cpu.iq.fu_full::FloatMemWrite                0      0.00%    100.00% # attempts to use FU when none available
system.cpu.iq.fu_full::IprAccess                    0      0.00%    100.00% # attempts to use FU when none available
system.cpu.iq.fu_full::InstPrefetch                 0      0.00%    100.00% # attempts to use FU when none available
system.cpu.iq.int_alu_accesses                  47650                       # Number of integer alu accesses
system.cpu.iq.int_inst_queue_reads             152263                       # Number of integer instruction queue reads
system.cpu.iq.int_inst_queue_wakeup_accesses        44115                       # Number of integer instruction queue wakeup accesses
system.cpu.iq.int_inst_queue_writes             66855                       # Number of integer instruction queue writes
system.cpu.iq.iqInstsAdded                      52135                       # Number of instructions added to the IQ (excludes non-spec)
system.cpu.iq.iqInstsIssued                     47848                       # Number of instructions issued
system.cpu.iq.iqNonSpecInstsAdded                  75                       # Number of non-speculative instructions added to the IQ
system.cpu.iq.iqSquashedInstsExamined           16360                       # Number of squashed instructions iterated over during squash; mainly for profiling
system.cpu.iq.iqSquashedInstsIssued               289                       # Number of squashed instructions issued
system.cpu.iq.iqSquashedNonSpecRemoved             27                       # Number of squashed non-spec instructions that were removed
system.cpu.iq.iqSquashedOperandsExamined        11145                       # Number of squashed operands that are examined and possibly removed from graph
system.cpu.iq.issued_per_cycle::samples         57466                       # Number of insts issued each cycle
system.cpu.iq.issued_per_cycle::mean         0.832631                       # Number of insts issued each cycle
system.cpu.iq.issued_per_cycle::stdev        1.649967                       # Number of insts issued each cycle
system.cpu.iq.issued_per_cycle::underflows            0      0.00%      0.00% # Number of insts issued each cycle
system.cpu.iq.issued_per_cycle::0               41474     72.17%     72.17% # Number of insts issued each cycle
system.cpu.iq.issued_per_cycle::1                4193      7.30%     79.47% # Number of insts issued each cycle
system.cpu.iq.issued_per_cycle::2                3450      6.00%     85.47% # Number of insts issued each cycle
system.cpu.iq.issued_per_cycle::3                2865      4.99%     90.46% # Number of insts issued each cycle
system.cpu.iq.issued_per_cycle::4                2134      3.71%     94.17% # Number of insts issued each cycle
system.cpu.iq.issued_per_cycle::5                1617      2.81%     96.98% # Number of insts issued each cycle
system.cpu.iq.issued_per_cycle::6                 949      1.65%     98.64% # Number of insts issued each cycle
system.cpu.iq.issued_per_cycle::7                 427      0.74%     99.38% # Number of insts issued each cycle
system.cpu.iq.issued_per_cycle::8                 357      0.62%    100.00% # Number of insts issued each cycle
system.cpu.iq.issued_per_cycle::overflows            0      0.00%    100.00% # Number of insts issued each cycle
system.cpu.iq.issued_per_cycle::min_value            0                       # Number of insts issued each cycle
system.cpu.iq.issued_per_cycle::max_value            8                       # Number of insts issued each cycle
system.cpu.iq.issued_per_cycle::total           57466                       # Number of insts issued each cycle
system.cpu.iq.rate                           0.355166                       # Inst issue rate
system.cpu.iq.vec_alu_accesses                    881                       # Number of vector alu accesses
system.cpu.iq.vec_inst_queue_reads               1880                       # Number of vector instruction queue reads
system.cpu.iq.vec_inst_queue_wakeup_accesses          661                       # Number of vector instruction queue wakeup accesses
system.cpu.iq.vec_inst_queue_writes              1737                       # Number of vector instruction queue writes
system.cpu.itb.accesses                             0                       # DTB accesses
system.cpu.itb.align_faults                         0                       # Number of TLB faults due to alignment restrictions
system.cpu.itb.domain_faults                        0                       # Number of TLB faults due to domain restrictions
system.cpu.itb.flush_entries                        0                       # Number of entries that have been flushed from TLB
system.cpu.itb.flush_tlb                            0                       # Number of times complete TLB was flushed
system.cpu.itb.flush_tlb_asid                       0                       # Number of times TLB was flushed by ASID
system.cpu.itb.flush_tlb_mva                        0                       # Number of times TLB was flushed by MVA
system.cpu.itb.flush_tlb_mva_asid                   0                       # Number of times TLB was flushed by MVA & ASID
system.cpu.itb.hits                                 0                       # DTB hits
system.cpu.itb.inst_accesses                        0                       # ITB inst accesses
system.cpu.itb.inst_hits                            0                       # ITB inst hits
system.cpu.itb.inst_misses                          0                       # ITB inst misses
system.cpu.itb.misses                               0                       # DTB misses
system.cpu.itb.perms_faults                         0                       # Number of TLB faults due to permissions restrictions
system.cpu.itb.prefetch_faults                      0                       # Number of TLB faults due to prefetch
system.cpu.itb.read_accesses                        0                       # DTB read accesses
system.cpu.itb.read_hits                            0                       # DTB read hits
system.cpu.itb.read_misses                          0                       # DTB read misses
system.cpu.itb.stage2_mmu.stage2_tlb.accesses            0                       # DTB accesses
system.cpu.itb.stage2_mmu.stage2_tlb.align_faults            0                       # Number of TLB faults due to alignment restrictions
system.cpu.itb.stage2_mmu.stage2_tlb.domain_faults            0                       # Number of TLB faults due to domain restrictions
system.cpu.itb.stage2_mmu.stage2_tlb.flush_entries            0                       # Number of entries that have been flushed from TLB
system.cpu.itb.stage2_mmu.stage2_tlb.flush_tlb            0                       # Number of times complete TLB was flushed
system.cpu.itb.stage2_mmu.stage2_tlb.flush_tlb_asid            0                       # Number of times TLB was flushed by ASID
system.cpu.itb.stage2_mmu.stage2_tlb.flush_tlb_mva            0                       # Number of times TLB was flushed by MVA
system.cpu.itb.stage2_mmu.stage2_tlb.flush_tlb_mva_asid            0                       # Number of times TLB was flushed by MVA & ASID
system.cpu.itb.stage2_mmu.stage2_tlb.hits            0                       # DTB hits
system.cpu.itb.stage2_mmu.stage2_tlb.inst_accesses            0                       # ITB inst accesses
system.cpu.itb.stage2_mmu.stage2_tlb.inst_hits            0                       # ITB inst hits
system.cpu.itb.stage2_mmu.stage2_tlb.inst_misses            0                       # ITB inst misses
system.cpu.itb.stage2_mmu.stage2_tlb.misses            0                       # DTB misses
system.cpu.itb.stage2_mmu.stage2_tlb.perms_faults            0                       # Number of TLB faults due to permissions restrictions
system.cpu.itb.stage2_mmu.stage2_tlb.prefetch_faults            0                       # Number of TLB faults due to prefetch
system.cpu.itb.stage2_mmu.stage2_tlb.read_accesses            0                       # DTB read accesses
system.cpu.itb.stage2_mmu.stage2_tlb.read_hits            0                       # DTB read hits
system.cpu.itb.stage2_mmu.stage2_tlb.read_misses            0                       # DTB read misses
system.cpu.itb.stage2_mmu.stage2_tlb.walker.walkRequestOrigin_Requested::Data            0                       # Table walker requests started/completed, data/inst
system.cpu.itb.stage2_mmu.stage2_tlb.walker.walkRequestOrigin_Requested::Inst            0                       # Table walker requests started/completed, data/inst
system.cpu.itb.stage2_mmu.stage2_tlb.walker.walkRequestOrigin_Requested::total            0                       # Table walker requests started/completed, data/inst
system.cpu.itb.stage2_mmu.stage2_tlb.walker.walkRequestOrigin_Completed::Data            0                       # Table walker requests started/completed, data/inst
system.cpu.itb.stage2_mmu.stage2_tlb.walker.walkRequestOrigin_Completed::Inst            0                       # Table walker requests started/completed, data/inst
system.cpu.itb.stage2_mmu.stage2_tlb.walker.walkRequestOrigin_Completed::total            0                       # Table walker requests started/completed, data/inst
system.cpu.itb.stage2_mmu.stage2_tlb.walker.walkRequestOrigin::total            0                       # Table walker requests started/completed, data/inst
system.cpu.itb.stage2_mmu.stage2_tlb.walker.walks            0                       # Table walker walks requested
system.cpu.itb.stage2_mmu.stage2_tlb.write_accesses            0                       # DTB write accesses
system.cpu.itb.stage2_mmu.stage2_tlb.write_hits            0                       # DTB write hits
system.cpu.itb.stage2_mmu.stage2_tlb.write_misses            0                       # DTB write misses
system.cpu.itb.walker.walkRequestOrigin_Requested::Data            0                       # Table walker requests started/completed, data/inst
system.cpu.itb.walker.walkRequestOrigin_Requested::Inst            0                       # Table walker requests started/completed, data/inst
system.cpu.itb.walker.walkRequestOrigin_Requested::total            0                       # Table walker requests started/completed, data/inst
system.cpu.itb.walker.walkRequestOrigin_Completed::Data            0                       # Table walker requests started/completed, data/inst
system.cpu.itb.walker.walkRequestOrigin_Completed::Inst            0                       # Table walker requests started/completed, data/inst
system.cpu.itb.walker.walkRequestOrigin_Completed::total            0                       # Table walker requests started/completed, data/inst
system.cpu.itb.walker.walkRequestOrigin::total            0                       # Table walker requests started/completed, data/inst
system.cpu.itb.walker.walks                         0                       # Table walker walks requested
system.cpu.itb.write_accesses                       0                       # DTB write accesses
system.cpu.itb.write_hits                           0                       # DTB write hits
system.cpu.itb.write_misses                         0                       # DTB write misses
system.cpu.memDep0.conflictingLoads                 8                       # Number of conflicting loads.
system.cpu.memDep0.conflictingStores              105                       # Number of conflicting stores.
system.cpu.memDep0.insertedLoads                 8092                       # Number of loads inserted to the mem dependence unit.
system.cpu.memDep0.insertedStores                8533                       # Number of stores inserted to the mem dependence unit.
system.cpu.misc_regfile_reads                   35949                       # number of misc regfile reads
system.cpu.misc_regfile_writes                     97                       # number of misc regfile writes
system.cpu.numCycles                           134720                       # number of cpu cycles simulated
system.cpu.numWorkItemsCompleted                    0                       # number of work items this cpu completed
system.cpu.numWorkItemsStarted                      0                       # number of work items this cpu started
system.cpu.rename.BlockCycles                    3384                       # Number of cycles rename is blocking
system.cpu.rename.CommittedMaps                 33835                       # Number of HB maps that are committed
system.cpu.rename.IQFullEvents                    233                       # Number of times rename has blocked due to IQ full
system.cpu.rename.IdleCycles                    33800                       # Number of cycles rename is idle
system.cpu.rename.LQFullEvents                      3                       # Number of times rename has blocked due to LQ full
system.cpu.rename.ROBFullEvents                     8                       # Number of times rename has blocked due to ROB full
system.cpu.rename.RenameLookups                 80611                       # Number of register rename lookups that rename has made
system.cpu.rename.RenamedInsts                  55798                       # Number of instructions processed by rename
system.cpu.rename.RenamedOperands               51926                       # Number of destination operands rename has renamed
system.cpu.rename.RunCycles                      9702                       # Number of cycles rename is running
system.cpu.rename.SQFullEvents                   1099                       # Number of times rename has blocked due to SQ full
system.cpu.rename.SquashCycles                   1089                       # Number of cycles rename is squashing
system.cpu.rename.UnblockCycles                  1659                       # Number of cycles rename is unblocking
system.cpu.rename.UndoneMaps                    18091                       # Number of HB maps that are undone due to squashing
system.cpu.rename.int_rename_lookups            62323                       # Number of integer rename lookups
system.cpu.rename.serializeStallCycles           7832                       # count of cycles rename stalled for serializing inst
system.cpu.rename.serializingInsts                315                       # count of serializing insts renamed
system.cpu.rename.skidInsts                      3358                       # count of insts added to the skid buffer
system.cpu.rename.tempSerializingInsts             77                       # count of temporary serializing insts renamed
system.cpu.rename.vec_rename_lookups             1236                       # Number of vector rename lookups
system.cpu.rob.rob_reads                       105491                       # The number of ROB reads
system.cpu.rob.rob_writes                      107321                       # The number of ROB writes
system.cpu.timesIdled                            1102                       # Number of times that the entire CPU went into an idle state and unscheduled itself
system.cpu.vec_regfile_reads                      721                       # number of vector regfile reads
system.cpu.vec_regfile_writes                     184                       # number of vector regfile writes
system.cpu.workload.numSyscalls                    23                       # Number of system calls
system.membus.snoop_filter.hit_multi_requests            0                       # Number of requests hitting in the snoop filter with multiple (>1) holders of the requested data.
system.membus.snoop_filter.hit_multi_snoops            0                       # Number of snoops hitting in the snoop filter with multiple (>1) holders of the requested data.
system.membus.snoop_filter.hit_single_requests            0                       # Number of requests hitting in the snoop filter with a single holder of the requested data.
system.membus.snoop_filter.hit_single_snoops            0                       # Number of snoops hitting in the snoop filter with a single holder of the requested data.
system.membus.snoop_filter.tot_requests          1299                       # Total number of requests made to the snoop filter.
system.membus.snoop_filter.tot_snoops               0                       # Total number of snoops made to the snoop filter.
system.tol2bus.snoop_filter.hit_multi_requests            2                       # Number of requests hitting in the snoop filter with multiple (>1) holders of the requested data.
system.tol2bus.snoop_filter.hit_multi_snoops            0                       # Number of snoops hitting in the snoop filter with multiple (>1) holders of the requested data.
system.tol2bus.snoop_filter.hit_single_requests         1488                       # Number of requests hitting in the snoop filter with a single holder of the requested data.
system.tol2bus.snoop_filter.hit_single_snoops            0                       # Number of snoops hitting in the snoop filter with a single holder of the requested data.
system.tol2bus.snoop_filter.tot_requests         3517                       # Total number of requests made to the snoop filter.
system.tol2bus.snoop_filter.tot_snoops              0                       # Total number of snoops made to the snoop filter.
system.membus.trans_dist::ReadResp               1057                       # Transaction distribution
system.membus.trans_dist::ReadExReq               170                       # Transaction distribution
system.membus.trans_dist::ReadExResp              170                       # Transaction distribution
system.membus.trans_dist::ReadSharedReq          1058                       # Transaction distribution
system.membus.trans_dist::InvalidateReq            71                       # Transaction distribution
system.membus.pkt_count_system.l2.mem_side::system.mem_ctrls.port         2526                       # Packet count per connected master and slave (bytes)
system.membus.pkt_count::total                   2526                       # Packet count per connected master and slave (bytes)
system.membus.pkt_size_system.l2.mem_side::system.mem_ctrls.port        78528                       # Cumulative packet size per connected master and slave (bytes)
system.membus.pkt_size::total                   78528                       # Cumulative packet size per connected master and slave (bytes)
system.membus.snoops                                0                       # Total snoops (count)
system.membus.snoopTraffic                          0                       # Total snoop traffic (bytes)
system.membus.snoop_fanout::samples              1299                       # Request fanout histogram
system.membus.snoop_fanout::mean                    0                       # Request fanout histogram
system.membus.snoop_fanout::stdev                   0                       # Request fanout histogram
system.membus.snoop_fanout::underflows              0      0.00%      0.00% # Request fanout histogram
system.membus.snoop_fanout::0                    1299    100.00%    100.00% # Request fanout histogram
system.membus.snoop_fanout::1                       0      0.00%    100.00% # Request fanout histogram
system.membus.snoop_fanout::overflows               0      0.00%    100.00% # Request fanout histogram
system.membus.snoop_fanout::min_value               0                       # Request fanout histogram
system.membus.snoop_fanout::max_value               0                       # Request fanout histogram
system.membus.snoop_fanout::total                1299                       # Request fanout histogram
system.membus.reqLayer0.occupancy             1600000                       # Layer occupancy (ticks)
system.membus.reqLayer0.utilization               2.4                       # Layer utilization (%)
system.membus.respLayer1.occupancy            6498500                       # Layer occupancy (ticks)
system.membus.respLayer1.utilization              9.6                       # Layer utilization (%)
system.membus.power_state.pwrStateResidencyTicks::UNDEFINED     67359500                       # Cumulative time (in ticks) in various power states
system.tol2bus.trans_dist::ReadResp              1784                       # Transaction distribution
system.tol2bus.trans_dist::WritebackDirty            4                       # Transaction distribution
system.tol2bus.trans_dist::WritebackClean         1476                       # Transaction distribution
system.tol2bus.trans_dist::CleanEvict               8                       # Transaction distribution
system.tol2bus.trans_dist::ReadExReq              172                       # Transaction distribution
system.tol2bus.trans_dist::ReadExResp             172                       # Transaction distribution
system.tol2bus.trans_dist::ReadCleanReq          1606                       # Transaction distribution
system.tol2bus.trans_dist::ReadSharedReq          180                       # Transaction distribution
system.tol2bus.trans_dist::InvalidateReq           71                       # Transaction distribution
system.tol2bus.trans_dist::InvalidateResp           71                       # Transaction distribution
system.tol2bus.pkt_count_system.cpu.icache.mem_side::system.l2.cpu_side         4686                       # Packet count per connected master and slave (bytes)
system.tol2bus.pkt_count_system.cpu.dcache.mem_side::system.l2.cpu_side          858                       # Packet count per connected master and slave (bytes)
system.tol2bus.pkt_count::total                  5544                       # Packet count per connected master and slave (bytes)
system.tol2bus.pkt_size_system.cpu.icache.mem_side::system.l2.cpu_side       197120                       # Cumulative packet size per connected master and slave (bytes)
system.tol2bus.pkt_size_system.cpu.dcache.mem_side::system.l2.cpu_side        22784                       # Cumulative packet size per connected master and slave (bytes)
system.tol2bus.pkt_size::total                 219904                       # Cumulative packet size per connected master and slave (bytes)
system.tol2bus.snoops                               0                       # Total snoops (count)
system.tol2bus.snoopTraffic                         0                       # Total snoop traffic (bytes)
system.tol2bus.snoop_fanout::samples             2029                       # Request fanout histogram
system.tol2bus.snoop_fanout::mean            0.000986                       # Request fanout histogram
system.tol2bus.snoop_fanout::stdev           0.031388                       # Request fanout histogram
system.tol2bus.snoop_fanout::underflows             0      0.00%      0.00% # Request fanout histogram
system.tol2bus.snoop_fanout::0                   2027     99.90%     99.90% # Request fanout histogram
system.tol2bus.snoop_fanout::1                      2      0.10%    100.00% # Request fanout histogram
system.tol2bus.snoop_fanout::2                      0      0.00%    100.00% # Request fanout histogram
system.tol2bus.snoop_fanout::overflows              0      0.00%    100.00% # Request fanout histogram
system.tol2bus.snoop_fanout::min_value              0                       # Request fanout histogram
system.tol2bus.snoop_fanout::max_value              1                       # Request fanout histogram
system.tol2bus.snoop_fanout::total               2029                       # Request fanout histogram
system.tol2bus.reqLayer0.occupancy            3238500                       # Layer occupancy (ticks)
system.tol2bus.reqLayer0.utilization              4.8                       # Layer utilization (%)
system.tol2bus.respLayer1.occupancy            563500                       # Layer occupancy (ticks)
system.tol2bus.respLayer1.utilization             0.8                       # Layer utilization (%)
system.tol2bus.respLayer0.occupancy           2406000                       # Layer occupancy (ticks)
system.tol2bus.respLayer0.utilization             3.6                       # Layer utilization (%)
system.tol2bus.power_state.pwrStateResidencyTicks::UNDEFINED     67359500                       # Cumulative time (in ticks) in various power states
system.voltage_domain.voltage                       1                       # Voltage in Volts
system.clk_domain.clock                          1000                       # Clock period in ticks
system.l2.demand_hits::.cpu.inst                  725                       # number of demand (read+write) hits
system.l2.demand_hits::.cpu.data                    4                       # number of demand (read+write) hits
system.l2.demand_hits::total                      729                       # number of demand (read+write) hits
system.l2.overall_hits::.cpu.inst                 725                       # number of overall hits
system.l2.overall_hits::.cpu.data                   4                       # number of overall hits
system.l2.overall_hits::total                     729                       # number of overall hits
system.l2.demand_misses::.cpu.inst                881                       # number of demand (read+write) misses
system.l2.demand_misses::.cpu.data                348                       # number of demand (read+write) misses
system.l2.demand_misses::total                   1229                       # number of demand (read+write) misses
system.l2.overall_misses::.cpu.inst               881                       # number of overall misses
system.l2.overall_misses::.cpu.data               348                       # number of overall misses
system.l2.overall_misses::total                  1229                       # number of overall misses
system.l2.demand_miss_latency::.cpu.inst     68643500                       # number of demand (read+write) miss cycles
system.l2.demand_miss_latency::.cpu.data     29909500                       # number of demand (read+write) miss cycles
system.l2.demand_miss_latency::total         98553000                       # number of demand (read+write) miss cycles
system.l2.overall_miss_latency::.cpu.inst     68643500                       # number of overall miss cycles
system.l2.overall_miss_latency::.cpu.data     29909500                       # number of overall miss cycles
system.l2.overall_miss_latency::total        98553000                       # number of overall miss cycles
system.l2.demand_accesses::.cpu.inst             1606                       # number of demand (read+write) accesses
system.l2.demand_accesses::.cpu.data              352                       # number of demand (read+write) accesses
system.l2.demand_accesses::total                 1958                       # number of demand (read+write) accesses
system.l2.overall_accesses::.cpu.inst            1606                       # number of overall (read+write) accesses
system.l2.overall_accesses::.cpu.data             352                       # number of overall (read+write) accesses
system.l2.overall_accesses::total                1958                       # number of overall (read+write) accesses
system.l2.demand_miss_rate::.cpu.inst        0.548568                       # miss rate for demand accesses
system.l2.demand_miss_rate::.cpu.data        0.988636                       # miss rate for demand accesses
system.l2.demand_miss_rate::total            0.627681                       # miss rate for demand accesses
system.l2.overall_miss_rate::.cpu.inst       0.548568                       # miss rate for overall accesses
system.l2.overall_miss_rate::.cpu.data       0.988636                       # miss rate for overall accesses
system.l2.overall_miss_rate::total           0.627681                       # miss rate for overall accesses
system.l2.demand_avg_miss_latency::.cpu.inst 77915.437003                       # average overall miss latency
system.l2.demand_avg_miss_latency::.cpu.data 85946.839080                       # average overall miss latency
system.l2.demand_avg_miss_latency::total 80189.585028                       # average overall miss latency
system.l2.overall_avg_miss_latency::.cpu.inst 77915.437003                       # average overall miss latency
system.l2.overall_avg_miss_latency::.cpu.data 85946.839080                       # average overall miss latency
system.l2.overall_avg_miss_latency::total 80189.585028                       # average overall miss latency
system.l2.blocked_cycles::no_mshrs                  0                       # number of cycles access was blocked
system.l2.blocked_cycles::no_targets                0                       # number of cycles access was blocked
system.l2.blocked::no_mshrs                         0                       # number of cycles access was blocked
system.l2.blocked::no_targets                       0                       # number of cycles access was blocked
system.l2.avg_blocked_cycles::no_mshrs            nan                       # average number of cycles each access was blocked
system.l2.avg_blocked_cycles::no_targets          nan                       # average number of cycles each access was blocked
system.l2.demand_mshr_misses::.cpu.inst           881                       # number of demand (read+write) MSHR misses
system.l2.demand_mshr_misses::.cpu.data           348                       # number of demand (read+write) MSHR misses
system.l2.demand_mshr_misses::total              1229                       # number of demand (read+write) MSHR misses
system.l2.overall_mshr_misses::.cpu.inst          881                       # number of overall MSHR misses
system.l2.overall_mshr_misses::.cpu.data          348                       # number of overall MSHR misses
system.l2.overall_mshr_misses::total             1229                       # number of overall MSHR misses
system.l2.demand_mshr_miss_latency::.cpu.inst     59853500                       # number of demand (read+write) MSHR miss cycles
system.l2.demand_mshr_miss_latency::.cpu.data     26429500                       # number of demand (read+write) MSHR miss cycles
system.l2.demand_mshr_miss_latency::total     86283000                       # number of demand (read+write) MSHR miss cycles
system.l2.overall_mshr_miss_latency::.cpu.inst     59853500                       # number of overall MSHR miss cycles
system.l2.overall_mshr_miss_latency::.cpu.data     26429500                       # number of overall MSHR miss cycles
system.l2.overall_mshr_miss_latency::total     86283000                       # number of overall MSHR miss cycles
system.l2.demand_mshr_miss_rate::.cpu.inst     0.548568                       # mshr miss rate for demand accesses
system.l2.demand_mshr_miss_rate::.cpu.data     0.988636                       # mshr miss rate for demand accesses
system.l2.demand_mshr_miss_rate::total       0.627681                       # mshr miss rate for demand accesses
system.l2.overall_mshr_miss_rate::.cpu.inst     0.548568                       # mshr miss rate for overall accesses
system.l2.overall_mshr_miss_rate::.cpu.data     0.988636                       # mshr miss rate for overall accesses
system.l2.overall_mshr_miss_rate::total      0.627681                       # mshr miss rate for overall accesses
system.l2.demand_avg_mshr_miss_latency::.cpu.inst 67938.138479                       # average overall mshr miss latency
system.l2.demand_avg_mshr_miss_latency::.cpu.data 75946.839080                       # average overall mshr miss latency
system.l2.demand_avg_mshr_miss_latency::total 70205.858421                       # average overall mshr miss latency
system.l2.overall_avg_mshr_miss_latency::.cpu.inst 67938.138479                       # average overall mshr miss latency
system.l2.overall_avg_mshr_miss_latency::.cpu.data 75946.839080                       # average overall mshr miss latency
system.l2.overall_avg_mshr_miss_latency::total 70205.858421                       # average overall mshr miss latency
system.l2.replacements                              0                       # number of replacements
system.l2.WritebackDirty_hits::.writebacks            4                       # number of WritebackDirty hits
system.l2.WritebackDirty_hits::total                4                       # number of WritebackDirty hits
system.l2.WritebackDirty_accesses::.writebacks            4                       # number of WritebackDirty accesses(hits+misses)
system.l2.WritebackDirty_accesses::total            4                       # number of WritebackDirty accesses(hits+misses)
system.l2.WritebackClean_hits::.writebacks         1474                       # number of WritebackClean hits
system.l2.WritebackClean_hits::total             1474                       # number of WritebackClean hits
system.l2.WritebackClean_accesses::.writebacks         1474                       # number of WritebackClean accesses(hits+misses)
system.l2.WritebackClean_accesses::total         1474                       # number of WritebackClean accesses(hits+misses)
system.l2.ReadExReq_hits::.cpu.data                 2                       # number of ReadExReq hits
system.l2.ReadExReq_hits::total                     2                       # number of ReadExReq hits
system.l2.ReadExReq_misses::.cpu.data             170                       # number of ReadExReq misses
system.l2.ReadExReq_misses::total                 170                       # number of ReadExReq misses
system.l2.ReadExReq_miss_latency::.cpu.data     14321000                       # number of ReadExReq miss cycles
system.l2.ReadExReq_miss_latency::total      14321000                       # number of ReadExReq miss cycles
system.l2.ReadExReq_accesses::.cpu.data           172                       # number of ReadExReq accesses(hits+misses)
system.l2.ReadExReq_accesses::total               172                       # number of ReadExReq accesses(hits+misses)
system.l2.ReadExReq_miss_rate::.cpu.data     0.988372                       # miss rate for ReadExReq accesses
system.l2.ReadExReq_miss_rate::total         0.988372                       # miss rate for ReadExReq accesses
system.l2.ReadExReq_avg_miss_latency::.cpu.data 84241.176471                       # average ReadExReq miss latency
system.l2.ReadExReq_avg_miss_latency::total 84241.176471                       # average ReadExReq miss latency
system.l2.ReadExReq_mshr_misses::.cpu.data          170                       # number of ReadExReq MSHR misses
system.l2.ReadExReq_mshr_misses::total            170                       # number of ReadExReq MSHR misses
system.l2.ReadExReq_mshr_miss_latency::.cpu.data     12621000                       # number of ReadExReq MSHR miss cycles
system.l2.ReadExReq_mshr_miss_latency::total     12621000                       # number of ReadExReq MSHR miss cycles
system.l2.ReadExReq_mshr_miss_rate::.cpu.data     0.988372                       # mshr miss rate for ReadExReq accesses
system.l2.ReadExReq_mshr_miss_rate::total     0.988372                       # mshr miss rate for ReadExReq accesses
system.l2.ReadExReq_avg_mshr_miss_latency::.cpu.data 74241.176471                       # average ReadExReq mshr miss latency
system.l2.ReadExReq_avg_mshr_miss_latency::total 74241.176471                       # average ReadExReq mshr miss latency
system.l2.ReadCleanReq_hits::.cpu.inst            725                       # number of ReadCleanReq hits
system.l2.ReadCleanReq_hits::total                725                       # number of ReadCleanReq hits
system.l2.ReadCleanReq_misses::.cpu.inst          881                       # number of ReadCleanReq misses
system.l2.ReadCleanReq_misses::total              881                       # number of ReadCleanReq misses
system.l2.ReadCleanReq_miss_latency::.cpu.inst     68643500                       # number of ReadCleanReq miss cycles
system.l2.ReadCleanReq_miss_latency::total     68643500                       # number of ReadCleanReq miss cycles
system.l2.ReadCleanReq_accesses::.cpu.inst         1606                       # number of ReadCleanReq accesses(hits+misses)
system.l2.ReadCleanReq_accesses::total           1606                       # number of ReadCleanReq accesses(hits+misses)
system.l2.ReadCleanReq_miss_rate::.cpu.inst     0.548568                       # miss rate for ReadCleanReq accesses
system.l2.ReadCleanReq_miss_rate::total      0.548568                       # miss rate for ReadCleanReq accesses
system.l2.ReadCleanReq_avg_miss_latency::.cpu.inst 77915.437003                       # average ReadCleanReq miss latency
system.l2.ReadCleanReq_avg_miss_latency::total 77915.437003                       # average ReadCleanReq miss latency
system.l2.ReadCleanReq_mshr_misses::.cpu.inst          881                       # number of ReadCleanReq MSHR misses
system.l2.ReadCleanReq_mshr_misses::total          881                       # number of ReadCleanReq MSHR misses
system.l2.ReadCleanReq_mshr_miss_latency::.cpu.inst     59853500                       # number of ReadCleanReq MSHR miss cycles
system.l2.ReadCleanReq_mshr_miss_latency::total     59853500                       # number of ReadCleanReq MSHR miss cycles
[...]
system.cpu.dcache.overall_misses::total          1438                       # number of overall misses
system.cpu.dcache.demand_miss_latency::.cpu.data     98569000                       # number of demand (read+write) miss cycles
system.cpu.dcache.demand_miss_latency::total     98569000                       # number of demand (read+write) miss cycles
system.cpu.dcache.overall_miss_latency::.cpu.data     98569000                       # number of overall miss cycles
system.cpu.dcache.overall_miss_latency::total     98569000                       # number of overall miss cycles
system.cpu.dcache.demand_accesses::.cpu.data        13259                       # number of demand (read+write) accesses
system.cpu.dcache.demand_accesses::total        13259                       # number of demand (read+write) accesses
system.cpu.dcache.overall_accesses::.cpu.data        13287                       # number of overall (read+write) accesses
system.cpu.dcache.overall_accesses::total        13287                       # number of overall (read+write) accesses
system.cpu.dcache.demand_miss_rate::.cpu.data     0.108078                       # miss rate for demand accesses
system.cpu.dcache.demand_miss_rate::total     0.108078                       # miss rate for demand accesses
system.cpu.dcache.overall_miss_rate::.cpu.data     0.108226                       # miss rate for overall accesses
system.cpu.dcache.overall_miss_rate::total     0.108226                       # miss rate for overall accesses
system.cpu.dcache.demand_avg_miss_latency::.cpu.data 68785.066294                       # average overall miss latency
system.cpu.dcache.demand_avg_miss_latency::total 68785.066294                       # average overall miss latency
system.cpu.dcache.overall_avg_miss_latency::.cpu.data 68545.897079                       # average overall miss latency
system.cpu.dcache.overall_avg_miss_latency::total 68545.897079                       # average overall miss latency
system.cpu.dcache.blocked_cycles::no_mshrs            0                       # number of cycles access was blocked
system.cpu.dcache.blocked_cycles::no_targets            0                       # number of cycles access was blocked
system.cpu.dcache.blocked::no_mshrs                 0                       # number of cycles access was blocked
system.cpu.dcache.blocked::no_targets               0                       # number of cycles access was blocked
system.cpu.dcache.avg_blocked_cycles::no_mshrs          nan                       # average number of cycles each access was blocked
system.cpu.dcache.avg_blocked_cycles::no_targets          nan                       # average number of cycles each access was blocked
system.cpu.dcache.writebacks::.writebacks            4                       # number of writebacks
system.cpu.dcache.writebacks::total                 4                       # number of writebacks
system.cpu.dcache.demand_mshr_hits::.cpu.data         1016                       # number of demand (read+write) MSHR hits
system.cpu.dcache.demand_mshr_hits::total         1016                       # number of demand (read+write) MSHR hits
system.cpu.dcache.overall_mshr_hits::.cpu.data         1016                       # number of overall MSHR hits
system.cpu.dcache.overall_mshr_hits::total         1016                       # number of overall MSHR hits
system.cpu.dcache.demand_mshr_misses::.cpu.data          417                       # number of demand (read+write) MSHR misses
system.cpu.dcache.demand_mshr_misses::total          417                       # number of demand (read+write) MSHR misses
system.cpu.dcache.overall_mshr_misses::.cpu.data          422                       # number of overall MSHR misses
system.cpu.dcache.overall_mshr_misses::total          422                       # number of overall MSHR misses
system.cpu.dcache.demand_mshr_miss_latency::.cpu.data     31931000                       # number of demand (read+write) MSHR miss cycles
system.cpu.dcache.demand_mshr_miss_latency::total     31931000                       # number of demand (read+write) MSHR miss cycles
system.cpu.dcache.overall_mshr_miss_latency::.cpu.data     32363500                       # number of overall MSHR miss cycles
system.cpu.dcache.overall_mshr_miss_latency::total     32363500                       # number of overall MSHR miss cycles
system.cpu.dcache.demand_mshr_miss_rate::.cpu.data     0.031450                       # mshr miss rate for demand accesses
system.cpu.dcache.demand_mshr_miss_rate::total     0.031450                       # mshr miss rate for demand accesses
system.cpu.dcache.overall_mshr_miss_rate::.cpu.data     0.031760                       # mshr miss rate for overall accesses
system.cpu.dcache.overall_mshr_miss_rate::total     0.031760                       # mshr miss rate for overall accesses
system.cpu.dcache.demand_avg_mshr_miss_latency::.cpu.data 76573.141487                       # average overall mshr miss latency
system.cpu.dcache.demand_avg_mshr_miss_latency::total 76573.141487                       # average overall mshr miss latency
system.cpu.dcache.overall_avg_mshr_miss_latency::.cpu.data 76690.758294                       # average overall mshr miss latency
system.cpu.dcache.overall_avg_mshr_miss_latency::total 76690.758294                       # average overall mshr miss latency
system.cpu.dcache.replacements                     12                       # number of replacements
system.cpu.dcache.ReadReq_hits::.cpu.data         6727                       # number of ReadReq hits
system.cpu.dcache.ReadReq_hits::total            6727                       # number of ReadReq hits
system.cpu.dcache.ReadReq_misses::.cpu.data          449                       # number of ReadReq misses
system.cpu.dcache.ReadReq_misses::total           449                       # number of ReadReq misses
system.cpu.dcache.ReadReq_miss_latency::.cpu.data     31723500                       # number of ReadReq miss cycles
system.cpu.dcache.ReadReq_miss_latency::total     31723500                       # number of ReadReq miss cycles
system.cpu.dcache.ReadReq_accesses::.cpu.data         7176                       # number of ReadReq accesses(hits+misses)
system.cpu.dcache.ReadReq_accesses::total         7176                       # number of ReadReq accesses(hits+misses)
system.cpu.dcache.ReadReq_miss_rate::.cpu.data     0.062570                       # miss rate for ReadReq accesses
system.cpu.dcache.ReadReq_miss_rate::total     0.062570                       # miss rate for ReadReq accesses
system.cpu.dcache.ReadReq_avg_miss_latency::.cpu.data 70653.674833                       # average ReadReq miss latency
system.cpu.dcache.ReadReq_avg_miss_latency::total 70653.674833                       # average ReadReq miss latency
system.cpu.dcache.ReadReq_mshr_hits::.cpu.data          275                       # number of ReadReq MSHR hits
system.cpu.dcache.ReadReq_mshr_hits::total          275                       # number of ReadReq MSHR hits
system.cpu.dcache.ReadReq_mshr_misses::.cpu.data          174                       # number of ReadReq MSHR misses
system.cpu.dcache.ReadReq_mshr_misses::total          174                       # number of ReadReq MSHR misses
system.cpu.dcache.ReadReq_mshr_miss_latency::.cpu.data     15136000                       # number of ReadReq MSHR miss cycles
system.cpu.dcache.ReadReq_mshr_miss_latency::total     15136000                       # number of ReadReq MSHR miss cycles
system.cpu.dcache.ReadReq_mshr_miss_rate::.cpu.data     0.024247                       # mshr miss rate for ReadReq accesses
system.cpu.dcache.ReadReq_mshr_miss_rate::total     0.024247                       # mshr miss rate for ReadReq accesses
system.cpu.dcache.ReadReq_avg_mshr_miss_latency::.cpu.data 86988.505747                       # average ReadReq mshr miss latency
system.cpu.dcache.ReadReq_avg_mshr_miss_latency::total 86988.505747                       # average ReadReq mshr miss latency
system.cpu.dcache.WriteReq_hits::.cpu.data         5099                       # number of WriteReq hits
system.cpu.dcache.WriteReq_hits::total           5099                       # number of WriteReq hits
system.cpu.dcache.WriteReq_misses::.cpu.data          924                       # number of WriteReq misses
system.cpu.dcache.WriteReq_misses::total          924                       # number of WriteReq misses
system.cpu.dcache.WriteReq_miss_latency::.cpu.data     64938500                       # number of WriteReq miss cycles
system.cpu.dcache.WriteReq_miss_latency::total     64938500                       # number of WriteReq miss cycles
system.cpu.dcache.WriteReq_accesses::.cpu.data         6023                       # number of WriteReq accesses(hits+misses)
system.cpu.dcache.WriteReq_accesses::total         6023                       # number of WriteReq accesses(hits+misses)
system.cpu.dcache.WriteReq_miss_rate::.cpu.data     0.153412                       # miss rate for WriteReq accesses
system.cpu.dcache.WriteReq_miss_rate::total     0.153412                       # miss rate for WriteReq accesses
system.cpu.dcache.WriteReq_avg_miss_latency::.cpu.data 70279.761905                       # average WriteReq miss latency
system.cpu.dcache.WriteReq_avg_miss_latency::total 70279.761905                       # average WriteReq miss latency
system.cpu.dcache.WriteReq_mshr_hits::.cpu.data          741                       # number of WriteReq MSHR hits
system.cpu.dcache.WriteReq_mshr_hits::total          741                       # number of WriteReq MSHR hits
system.cpu.dcache.WriteReq_mshr_misses::.cpu.data          183                       # number of WriteReq MSHR misses
system.cpu.dcache.WriteReq_mshr_misses::total          183                       # number of WriteReq MSHR misses
system.cpu.dcache.WriteReq_mshr_miss_latency::.cpu.data     14948000                       # number of WriteReq MSHR miss cycles
system.cpu.dcache.WriteReq_mshr_miss_latency::total     14948000                       # number of WriteReq MSHR miss cycles
system.cpu.dcache.WriteReq_mshr_miss_rate::.cpu.data     0.030384                       # mshr miss rate for WriteReq accesses
system.cpu.dcache.WriteReq_mshr_miss_rate::total     0.030384                       # mshr miss rate for WriteReq accesses
system.cpu.dcache.WriteReq_avg_mshr_miss_latency::.cpu.data 81683.060109                       # average WriteReq mshr miss latency
system.cpu.dcache.WriteReq_avg_mshr_miss_latency::total 81683.060109                       # average WriteReq mshr miss latency
system.cpu.dcache.SoftPFReq_hits::.cpu.data           23                       # number of SoftPFReq hits
system.cpu.dcache.SoftPFReq_hits::total            23                       # number of SoftPFReq hits
system.cpu.dcache.SoftPFReq_misses::.cpu.data            5                       # number of SoftPFReq misses
system.cpu.dcache.SoftPFReq_misses::total            5                       # number of SoftPFReq misses
system.cpu.dcache.SoftPFReq_accesses::.cpu.data           28                       # number of SoftPFReq accesses(hits+misses)
system.cpu.dcache.SoftPFReq_accesses::total           28                       # number of SoftPFReq accesses(hits+misses)
system.cpu.dcache.SoftPFReq_miss_rate::.cpu.data     0.178571                       # miss rate for SoftPFReq accesses
system.cpu.dcache.SoftPFReq_miss_rate::total     0.178571                       # miss rate for SoftPFReq accesses
system.cpu.dcache.SoftPFReq_mshr_misses::.cpu.data            5                       # number of SoftPFReq MSHR misses
system.cpu.dcache.SoftPFReq_mshr_misses::total            5                       # number of SoftPFReq MSHR misses
system.cpu.dcache.SoftPFReq_mshr_miss_latency::.cpu.data       432500                       # number of SoftPFReq MSHR miss cycles
system.cpu.dcache.SoftPFReq_mshr_miss_latency::total       432500                       # number of SoftPFReq MSHR miss cycles
system.cpu.dcache.SoftPFReq_mshr_miss_rate::.cpu.data     0.178571                       # mshr miss rate for SoftPFReq accesses
system.cpu.dcache.SoftPFReq_mshr_miss_rate::total     0.178571                       # mshr miss rate for SoftPFReq accesses
system.cpu.dcache.SoftPFReq_avg_mshr_miss_latency::.cpu.data        86500                       # average SoftPFReq mshr miss latency
system.cpu.dcache.SoftPFReq_avg_mshr_miss_latency::total        86500                       # average SoftPFReq mshr miss latency
system.cpu.dcache.WriteLineReq_misses::.cpu.data           60                       # number of WriteLineReq misses
system.cpu.dcache.WriteLineReq_misses::total           60                       # number of WriteLineReq misses
system.cpu.dcache.WriteLineReq_miss_latency::.cpu.data      1907000                       # number of WriteLineReq miss cycles
system.cpu.dcache.WriteLineReq_miss_latency::total      1907000                       # number of WriteLineReq miss cycles
system.cpu.dcache.WriteLineReq_accesses::.cpu.data           60                       # number of WriteLineReq accesses(hits+misses)
system.cpu.dcache.WriteLineReq_accesses::total           60                       # number of WriteLineReq accesses(hits+misses)
system.cpu.dcache.WriteLineReq_miss_rate::.cpu.data            1                       # miss rate for WriteLineReq accesses
system.cpu.dcache.WriteLineReq_miss_rate::total            1                       # miss rate for WriteLineReq accesses
system.cpu.dcache.WriteLineReq_avg_miss_latency::.cpu.data 31783.333333                       # average WriteLineReq miss latency
system.cpu.dcache.WriteLineReq_avg_miss_latency::total 31783.333333                       # average WriteLineReq miss latency
system.cpu.dcache.WriteLineReq_mshr_misses::.cpu.data           60                       # number of WriteLineReq MSHR misses
system.cpu.dcache.WriteLineReq_mshr_misses::total           60                       # number of WriteLineReq MSHR misses
system.cpu.dcache.WriteLineReq_mshr_miss_latency::.cpu.data      1847000                       # number of WriteLineReq MSHR miss cycles
system.cpu.dcache.WriteLineReq_mshr_miss_latency::total      1847000                       # number of WriteLineReq MSHR miss cycles
system.cpu.dcache.WriteLineReq_mshr_miss_rate::.cpu.data            1                       # mshr miss rate for WriteLineReq accesses
system.cpu.dcache.WriteLineReq_mshr_miss_rate::total            1                       # mshr miss rate for WriteLineReq accesses
system.cpu.dcache.WriteLineReq_avg_mshr_miss_latency::.cpu.data 30783.333333                       # average WriteLineReq mshr miss latency
system.cpu.dcache.WriteLineReq_avg_mshr_miss_latency::total 30783.333333                       # average WriteLineReq mshr miss latency
system.cpu.dcache.LoadLockedReq_hits::.cpu.data           34                       # number of LoadLockedReq hits
system.cpu.dcache.LoadLockedReq_hits::total           34                       # number of LoadLockedReq hits
system.cpu.dcache.LoadLockedReq_misses::.cpu.data            1                       # number of LoadLockedReq misses
system.cpu.dcache.LoadLockedReq_misses::total            1                       # number of LoadLockedReq misses
system.cpu.dcache.LoadLockedReq_miss_latency::.cpu.data       315500                       # number of LoadLockedReq miss cycles
system.cpu.dcache.LoadLockedReq_miss_latency::total       315500                       # number of LoadLockedReq miss cycles
system.cpu.dcache.LoadLockedReq_accesses::.cpu.data           35                       # number of LoadLockedReq accesses(hits+misses)
system.cpu.dcache.LoadLockedReq_accesses::total           35                       # number of LoadLockedReq accesses(hits+misses)
system.cpu.dcache.LoadLockedReq_miss_rate::.cpu.data     0.028571                       # miss rate for LoadLockedReq accesses
system.cpu.dcache.LoadLockedReq_miss_rate::total     0.028571                       # miss rate for LoadLockedReq accesses
system.cpu.dcache.LoadLockedReq_avg_miss_latency::.cpu.data       315500                       # average LoadLockedReq miss latency
system.cpu.dcache.LoadLockedReq_avg_miss_latency::total       315500                       # average LoadLockedReq miss latency
system.cpu.dcache.LoadLockedReq_mshr_misses::.cpu.data            1                       # number of LoadLockedReq MSHR misses
system.cpu.dcache.LoadLockedReq_mshr_misses::total            1                       # number of LoadLockedReq MSHR misses
system.cpu.dcache.LoadLockedReq_mshr_miss_latency::.cpu.data       314500                       # number of LoadLockedReq MSHR miss cycles
system.cpu.dcache.LoadLockedReq_mshr_miss_latency::total       314500                       # number of LoadLockedReq MSHR miss cycles
system.cpu.dcache.LoadLockedReq_mshr_miss_rate::.cpu.data     0.028571                       # mshr miss rate for LoadLockedReq accesses
system.cpu.dcache.LoadLockedReq_mshr_miss_rate::total     0.028571                       # mshr miss rate for LoadLockedReq accesses
system.cpu.dcache.LoadLockedReq_avg_mshr_miss_latency::.cpu.data       314500                       # average LoadLockedReq mshr miss latency
system.cpu.dcache.LoadLockedReq_avg_mshr_miss_latency::total       314500                       # average LoadLockedReq mshr miss latency
system.cpu.dcache.StoreCondReq_hits::.cpu.data           24                       # number of StoreCondReq hits
system.cpu.dcache.StoreCondReq_hits::total           24                       # number of StoreCondReq hits
system.cpu.dcache.StoreCondReq_accesses::.cpu.data           24                       # number of StoreCondReq accesses(hits+misses)
system.cpu.dcache.StoreCondReq_accesses::total           24                       # number of StoreCondReq accesses(hits+misses)
system.cpu.dcache.power_state.pwrStateResidencyTicks::UNDEFINED     67359500                       # Cumulative time (in ticks) in various power states
system.cpu.dcache.tags.tagsinuse           261.110128                       # Cycle average of tags in use
system.cpu.dcache.tags.total_refs               12330                       # Total number of references to valid blocks.
system.cpu.dcache.tags.sampled_refs               423                       # Sample count of references to valid blocks.
system.cpu.dcache.tags.avg_refs             29.148936                       # Average number of references to valid blocks.
system.cpu.dcache.tags.warmup_cycle            176500                       # Cycle when the warmup percentage was hit.
system.cpu.dcache.tags.occ_blocks::.cpu.data   261.110128                       # Average occupied blocks per requestor
system.cpu.dcache.tags.occ_percent::.cpu.data     0.254990                       # Average percentage of cache occupancy
system.cpu.dcache.tags.occ_percent::total     0.254990                       # Average percentage of cache occupancy
system.cpu.dcache.tags.occ_task_id_blocks::1024          411                       # Occupied blocks per task id
system.cpu.dcache.tags.age_task_id_blocks_1024::0           21                       # Occupied blocks per task id
system.cpu.dcache.tags.age_task_id_blocks_1024::1          390                       # Occupied blocks per task id
system.cpu.dcache.tags.occ_task_id_percent::1024     0.401367                       # Percentage of cache occupancy per task id
system.cpu.dcache.tags.tag_accesses             27115                       # Number of tag accesses
system.cpu.dcache.tags.data_accesses            27115                       # Number of data accesses
system.cpu.dcache.tags.power_state.pwrStateResidencyTicks::UNDEFINED     67359500                       # Cumulative time (in ticks) in various power states
system.cpu.power_state.pwrStateResidencyTicks::ON     67359500                       # Cumulative time (in ticks) in various power states

---------- End Simulation Statistics   ----------
