
---------- Begin Simulation Statistics ----------
final_tick                                19830801000                       # Number of ticks from beginning of simulation (restored from checkpoints and never reset)
host_inst_rate                                  84725                       # Simulator instruction rate (inst/s)
host_mem_usage                                 865704                       # Number of bytes of host memory used
host_op_rate                                    84785                       # Simulator op (including micro ops) rate (op/s)
host_seconds                                   118.03                       # Real time elapsed on the host
host_tick_rate                              168017081                       # Simulator tick rate (ticks/s)
sim_freq                                 1000000000000                       # Frequency of simulated ticks
sim_insts                                    10000003                       # Number of instructions simulated
sim_ops                                      10007008                       # Number of ops (including micro ops) simulated
sim_seconds                                  0.019831                       # Number of seconds simulated
sim_ticks                                 19830801000                       # Number of ticks simulated
system.cpu.branchPred.BTBCorrect                    0                       # Number of correct BTB predictions (this stat may not work properly.
system.cpu.branchPred.BTBHitPct             99.981698                       # BTB Hit Percentage
system.cpu.branchPred.BTBHits                 4102720                       # Number of BTB hits
system.cpu.branchPred.BTBLookups              4103471                       # Number of BTB lookups
system.cpu.branchPred.RASInCorrect                  0                       # Number of incorrect RAS predictions.
system.cpu.branchPred.condIncorrect               915                       # Number of conditional branches incorrect
system.cpu.branchPred.condPredicted           4104677                       # Number of conditional branches predicted
system.cpu.branchPred.indirectHits                  4                       # Number of indirect target hits.
system.cpu.branchPred.indirectLookups             184                       # Number of indirect predictor lookups.
system.cpu.branchPred.indirectMisses              180                       # Number of indirect misses.
system.cpu.branchPred.lookups                 4110390                       # Number of BP lookups
system.cpu.branchPred.usedRAS                    2365                       # Number of times the RAS was used to get a target.
system.cpu.branchPredindirectMispredicted           46                       # Number of mispredicted indirect branches.
system.cpu.cc_regfile_reads                  10994091                       # number of cc regfile reads
system.cpu.cc_regfile_writes                 10994628                       # number of cc regfile writes
system.cpu.commit.amos                              0                       # Number of atomic instructions committed
system.cpu.commit.branchMispredicts               715                       # The number of times a branch was mispredicted
system.cpu.commit.branches                    2384681                       # Number of branches committed
system.cpu.commit.bw_lim_events                 48887                       # number cycles where commit BW limit reached
system.cpu.commit.commitNonSpecStalls              31                       # The number of times commit has been forced to stall to communicate backwards
system.cpu.commit.commitSquashedInsts         4702577                       # The number of squashed insts skipped by commit
system.cpu.commit.committedInsts             10000033                       # Number of instructions committed
system.cpu.commit.committedOps               10007038                       # Number of ops (including micro ops) committed
system.cpu.commit.committed_per_cycle::samples     39039179                       # Number of insts commited each cycle
system.cpu.commit.committed_per_cycle::mean     0.256333                       # Number of insts commited each cycle
system.cpu.commit.committed_per_cycle::stdev     0.916717                       # Number of insts commited each cycle
system.cpu.commit.committed_per_cycle::underflows            0      0.00%      0.00% # Number of insts commited each cycle
system.cpu.commit.committed_per_cycle::0     35525384     91.00%     91.00% # Number of insts commited each cycle
system.cpu.commit.committed_per_cycle::1      1070485      2.74%     93.74% # Number of insts commited each cycle
system.cpu.commit.committed_per_cycle::2        12735      0.03%     93.77% # Number of insts commited each cycle
system.cpu.commit.committed_per_cycle::3      1033787      2.65%     96.42% # Number of insts commited each cycle
system.cpu.commit.committed_per_cycle::4      1324115      3.39%     99.81% # Number of insts commited each cycle
system.cpu.commit.committed_per_cycle::5        21607      0.06%     99.87% # Number of insts commited each cycle
system.cpu.commit.committed_per_cycle::6         1122      0.00%     99.87% # Number of insts commited each cycle
system.cpu.commit.committed_per_cycle::7         1057      0.00%     99.87% # Number of insts commited each cycle
system.cpu.commit.committed_per_cycle::8        48887      0.13%    100.00% # Number of insts commited each cycle
system.cpu.commit.committed_per_cycle::overflows            0      0.00%    100.00% # Number of insts commited each cycle
system.cpu.commit.committed_per_cycle::min_value            0                       # Number of insts commited each cycle
system.cpu.commit.committed_per_cycle::max_value            8                       # Number of insts commited each cycle
system.cpu.commit.committed_per_cycle::total     39039179                       # Number of insts commited each cycle
system.cpu.commit.fp_insts                          0                       # Number of committed floating point instructions.
system.cpu.commit.function_calls                 2159                       # Number of function calls committed.
system.cpu.commit.int_insts                   7629238                       # Number of committed integer instructions.
system.cpu.commit.loads                        161706                       # Number of loads committed
system.cpu.commit.membars                          20                       # Number of memory barriers committed
system.cpu.commit.op_class_0::No_OpClass            5      0.00%      0.00% # Class of committed instruction
system.cpu.commit.op_class_0::IntAlu          7375693     73.71%     73.71% # Class of committed instruction
system.cpu.commit.op_class_0::IntMult             634      0.01%     73.71% # Class of committed instruction
system.cpu.commit.op_class_0::IntDiv                2      0.00%     73.71% # Class of committed instruction
system.cpu.commit.op_class_0::FloatAdd              0      0.00%     73.71% # Class of committed instruction
system.cpu.commit.op_class_0::FloatCmp              0      0.00%     73.71% # Class of committed instruction
system.cpu.commit.op_class_0::FloatCvt              0      0.00%     73.71% # Class of committed instruction
system.cpu.commit.op_class_0::FloatMult             0      0.00%     73.71% # Class of committed instruction
system.cpu.commit.op_class_0::FloatMultAcc            0      0.00%     73.71% # Class of committed instruction
system.cpu.commit.op_class_0::FloatDiv              0      0.00%     73.71% # Class of committed instruction
system.cpu.commit.op_class_0::FloatMisc             1      0.00%     73.71% # Class of committed instruction
system.cpu.commit.op_class_0::FloatSqrt             0      0.00%     73.71% # Class of committed instruction
system.cpu.commit.op_class_0::SimdAdd              20      0.00%     73.71% # Class of committed instruction
system.cpu.commit.op_class_0::SimdAddAcc            0      0.00%     73.71% # Class of committed instruction
system.cpu.commit.op_class_0::SimdAlu              19      0.00%     73.71% # Class of committed instruction
system.cpu.commit.op_class_0::SimdCmp              20      0.00%     73.71% # Class of committed instruction
system.cpu.commit.op_class_0::SimdCvt               0      0.00%     73.71% # Class of committed instruction
system.cpu.commit.op_class_0::SimdMisc             25      0.00%     73.71% # Class of committed instruction
system.cpu.commit.op_class_0::SimdMult              0      0.00%     73.71% # Class of committed instruction
system.cpu.commit.op_class_0::SimdMultAcc            0      0.00%     73.71% # Class of committed instruction
system.cpu.commit.op_class_0::SimdShift             0      0.00%     73.71% # Class of committed instruction
system.cpu.commit.op_class_0::SimdShiftAcc            0      0.00%     73.71% # Class of committed instruction
system.cpu.commit.op_class_0::SimdDiv               0      0.00%     73.71% # Class of committed instruction
system.cpu.commit.op_class_0::SimdSqrt              0      0.00%     73.71% # Class of committed instruction
system.cpu.commit.op_class_0::SimdFloatAdd            0      0.00%     73.71% # Class of committed instruction
system.cpu.commit.op_class_0::SimdFloatAlu            0      0.00%     73.71% # Class of committed instruction
system.cpu.commit.op_class_0::SimdFloatCmp            0      0.00%     73.71% # Class of committed instruction
system.cpu.commit.op_class_0::SimdFloatCvt            0      0.00%     73.71% # Class of committed instruction
system.cpu.commit.op_class_0::SimdFloatDiv            0      0.00%     73.71% # Class of committed instruction
system.cpu.commit.op_class_0::SimdFloatMisc            0      0.00%     73.71% # Class of committed instruction
system.cpu.commit.op_class_0::SimdFloatMult            0      0.00%     73.71% # Class of committed instruction
system.cpu.commit.op_class_0::SimdFloatMultAcc            0      0.00%     73.71% # Class of committed instruction
system.cpu.commit.op_class_0::SimdFloatSqrt            0      0.00%     73.71% # Class of committed instruction
system.cpu.commit.op_class_0::SimdReduceAdd            0      0.00%     73.71% # Class of committed instruction
system.cpu.commit.op_class_0::SimdReduceAlu            0      0.00%     73.71% # Class of committed instruction
system.cpu.commit.op_class_0::SimdReduceCmp            0      0.00%     73.71% # Class of committed instruction
system.cpu.commit.op_class_0::SimdFloatReduceAdd            0      0.00%     73.71% # Class of committed instruction
system.cpu.commit.op_class_0::SimdFloatReduceCmp            0      0.00%     73.71% # Class of committed instruction
system.cpu.commit.op_class_0::SimdAes               0      0.00%     73.71% # Class of committed instruction
system.cpu.commit.op_class_0::SimdAesMix            0      0.00%     73.71% # Class of committed instruction
system.cpu.commit.op_class_0::SimdSha1Hash            0      0.00%     73.71% # Class of committed instruction
system.cpu.commit.op_class_0::SimdSha1Hash2            0      0.00%     73.71% # Class of committed instruction
system.cpu.commit.op_class_0::SimdSha256Hash            0      0.00%     73.71% # Class of committed instruction
system.cpu.commit.op_class_0::SimdSha256Hash2            0      0.00%     73.71% # Class of committed instruction
system.cpu.commit.op_class_0::SimdShaSigma2            0      0.00%     73.71% # Class of committed instruction
system.cpu.commit.op_class_0::SimdShaSigma3            0      0.00%     73.71% # Class of committed instruction
system.cpu.commit.op_class_0::SimdPredAlu            0      0.00%     73.71% # Class of committed instruction
system.cpu.commit.op_class_0::MemRead          161706      1.62%     75.33% # Class of committed instruction
system.cpu.commit.op_class_0::MemWrite        2468913     24.67%    100.00% # Class of committed instruction
system.cpu.commit.op_class_0::FloatMemRead            0      0.00%    100.00% # Class of committed instruction
system.cpu.commit.op_class_0::FloatMemWrite            0      0.00%    100.00% # Class of committed instruction
system.cpu.commit.op_class_0::IprAccess             0      0.00%    100.00% # Class of committed instruction
system.cpu.commit.op_class_0::InstPrefetch            0      0.00%    100.00% # Class of committed instruction
system.cpu.commit.op_class_0::total          10007038                       # Class of committed instruction
system.cpu.commit.refs                        2630619                       # Number of memory references committed
system.cpu.commit.swp_count                         0                       # Number of s/w prefetches committed
system.cpu.commit.vec_insts                       405                       # Number of committed Vector instructions.
system.cpu.committedInsts                    10000003                       # Number of Instructions Simulated
system.cpu.committedOps                      10007008                       # Number of Ops (including micro ops) Simulated
system.cpu.cpi                               3.966159                       # CPI: Cycles Per Instruction
system.cpu.cpi_total                         3.966159                       # CPI: Total CPI of All Threads
system.cpu.decode.BlockedCycles              36742017                       # Number of cycles decode is blocked
system.cpu.decode.BranchMispred                   205                       # Number of times decode detected a branch misprediction
system.cpu.decode.BranchResolved              3736179                       # Number of times decode resolved a branch
system.cpu.decode.DecodedInsts               15448182                       # Number of instructions handled by decode
system.cpu.decode.IdleCycles                   537865                       # Number of cycles decode is idle
system.cpu.decode.RunCycles                   1056940                       # Number of cycles decode is running
system.cpu.decode.SquashCycles                  37396                       # Number of cycles decode is squashing
system.cpu.decode.SquashedInsts                   743                       # Number of squashed instructions handled by decode
system.cpu.decode.UnblockCycles               1253199                       # Number of cycles decode is unblocking
system.cpu.dtb.accesses                             0                       # DTB accesses
system.cpu.dtb.align_faults                         0                       # Number of TLB faults due to alignment restrictions
system.cpu.dtb.domain_faults                        0                       # Number of TLB faults due to domain restrictions
system.cpu.dtb.flush_entries                        0                       # Number of entries that have been flushed from TLB
system.cpu.dtb.flush_tlb                            0                       # Number of times complete TLB was flushed
system.cpu.dtb.flush_tlb_asid                       0                       # Number of times TLB was flushed by ASID
system.cpu.dtb.flush_tlb_mva                        0                       # Number of times TLB was flushed by MVA
system.cpu.dtb.flush_tlb_mva_asid                   0                       # Number of times TLB was flushed by MVA & ASID
system.cpu.dtb.hits                                 0                       # DTB hits
system.cpu.dtb.inst_accesses                        0                       # ITB inst accesses
system.cpu.dtb.inst_hits                            0                       # ITB inst hits
system.cpu.dtb.inst_misses                          0                       # ITB inst misses
system.cpu.dtb.misses                               0                       # DTB misses
system.cpu.dtb.perms_faults                         0                       # Number of TLB faults due to permissions restrictions
system.cpu.dtb.prefetch_faults                      0                       # Number of TLB faults due to prefetch
system.cpu.dtb.read_accesses                        0                       # DTB read accesses
system.cpu.dtb.read_hits                            0                       # DTB read hits
system.cpu.dtb.read_misses                          0                       # DTB read misses
system.cpu.dtb.stage2_mmu.stage2_tlb.accesses            0                       # DTB accesses
system.cpu.dtb.stage2_mmu.stage2_tlb.align_faults            0                       # Number of TLB faults due to alignment restrictions
system.cpu.dtb.stage2_mmu.stage2_tlb.domain_faults            0                       # Number of TLB faults due to domain restrictions
system.cpu.dtb.stage2_mmu.stage2_tlb.flush_entries            0                       # Number of entries that have been flushed from TLB
system.cpu.dtb.stage2_mmu.stage2_tlb.flush_tlb            0                       # Number of times complete TLB was flushed
system.cpu.dtb.stage2_mmu.stage2_tlb.flush_tlb_asid            0                       # Number of times TLB was flushed by ASID
system.cpu.dtb.stage2_mmu.stage2_tlb.flush_tlb_mva            0                       # Number of times TLB was flushed by MVA
system.cpu.dtb.stage2_mmu.stage2_tlb.flush_tlb_mva_asid            0                       # Number of times TLB was flushed by MVA & ASID
system.cpu.dtb.stage2_mmu.stage2_tlb.hits            0                       # DTB hits
system.cpu.dtb.stage2_mmu.stage2_tlb.inst_accesses            0                       # ITB inst accesses
system.cpu.dtb.stage2_mmu.stage2_tlb.inst_hits            0                       # ITB inst hits
system.cpu.dtb.stage2_mmu.stage2_tlb.inst_misses            0                       # ITB inst misses
system.cpu.dtb.stage2_mmu.stage2_tlb.misses            0                       # DTB misses
system.cpu.dtb.stage2_mmu.stage2_tlb.perms_faults            0                       # Number of TLB faults due to permissions restrictions
system.cpu.dtb.stage2_mmu.stage2_tlb.prefetch_faults            0                       # Number of TLB faults due to prefetch
system.cpu.dtb.stage2_mmu.stage2_tlb.read_accesses            0                       # DTB read accesses
system.cpu.dtb.stage2_mmu.stage2_tlb.read_hits            0                       # DTB read hits
system.cpu.dtb.stage2_mmu.stage2_tlb.read_misses            0                       # DTB read misses
system.cpu.dtb.stage2_mmu.stage2_tlb.walker.walkRequestOrigin_Requested::Data            0                       # Table walker requests started/completed, data/inst
system.cpu.dtb.stage2_mmu.stage2_tlb.walker.walkRequestOrigin_Requested::Inst            0                       # Table walker requests started/completed, data/inst
system.cpu.dtb.stage2_mmu.stage2_tlb.walker.walkRequestOrigin_Requested::total            0                       # Table walker requests started/completed, data/inst
system.cpu.dtb.stage2_mmu.stage2_tlb.walker.walkRequestOrigin_Completed::Data            0                       # Table walker requests started/completed, data/inst
system.cpu.dtb.stage2_mmu.stage2_tlb.walker.walkRequestOrigin_Completed::Inst            0                       # Table walker requests started/completed, data/inst
system.cpu.dtb.stage2_mmu.stage2_tlb.walker.walkRequestOrigin_Completed::total            0                       # Table walker requests started/completed, data/inst
system.cpu.dtb.stage2_mmu.stage2_tlb.walker.walkRequestOrigin::total            0                       # Table walker requests started/completed, data/inst
system.cpu.dtb.stage2_mmu.stage2_tlb.walker.walks            0                       # Table walker walks requested
system.cpu.dtb.stage2_mmu.stage2_tlb.write_accesses            0                       # DTB write accesses
system.cpu.dtb.stage2_mmu.stage2_tlb.write_hits            0                       # DTB write hits
system.cpu.dtb.stage2_mmu.stage2_tlb.write_misses            0                       # DTB write misses
system.cpu.dtb.walker.walkRequestOrigin_Requested::Data            0                       # Table walker requests started/completed, data/inst
system.cpu.dtb.walker.walkRequestOrigin_Requested::Inst            0                       # Table walker requests started/completed, data/inst
system.cpu.dtb.walker.walkRequestOrigin_Requested::total            0                       # Table walker requests started/completed, data/inst
system.cpu.dtb.walker.walkRequestOrigin_Completed::Data            0                       # Table walker requests started/completed, data/inst
system.cpu.dtb.walker.walkRequestOrigin_Completed::Inst            0                       # Table walker requests started/completed, data/inst
system.cpu.dtb.walker.walkRequestOrigin_Completed::total            0                       # Table walker requests started/completed, data/inst
system.cpu.dtb.walker.walkRequestOrigin::total            0                       # Table walker requests started/completed, data/inst
system.cpu.dtb.walker.walks                         0                       # Table walker walks requested
system.cpu.dtb.write_accesses                       0                       # DTB write accesses
system.cpu.dtb.write_hits                           0                       # DTB write hits
system.cpu.dtb.write_misses                         0                       # DTB write misses
system.cpu.fetch.Branches                     4110390                       # Number of branches that fetch encountered
system.cpu.fetch.CacheLines                     65514                       # Number of cache lines fetched
system.cpu.fetch.Cycles                      39514297                       # Number of cycles fetch has run and was not squashing or blocked
system.cpu.fetch.IcacheSquashes                   440                       # Number of outstanding Icache misses that were squashed
system.cpu.fetch.IcacheWaitRetryStallCycles           71                       # Number of stall cycles due to full MSHR
system.cpu.fetch.Insts                       16911268                       # Number of instructions fetch has processed
system.cpu.fetch.MiscStallCycles                    5                       # Number of cycles fetch has spent waiting on interrupts, or bad addresses, or out of MSHRs
system.cpu.fetch.SquashCycles                   75192                       # Number of cycles fetch has spent squashing
system.cpu.fetch.branchRate                  0.103637                       # Number of branch fetches per cycle
system.cpu.fetch.icacheStallCycles              75448                       # Number of cycles fetch is stalled on an Icache miss
system.cpu.fetch.predictedBranches            4105089                       # Number of branches that fetch has predicted taken
system.cpu.fetch.rate                        0.426389                       # Number of inst fetches per cycle
system.cpu.fetch.rateDist::samples           39627417                       # Number of instructions fetched each cycle (Total)
system.cpu.fetch.rateDist::mean              0.426984                       # Number of instructions fetched each cycle (Total)
system.cpu.fetch.rateDist::stdev             1.252079                       # Number of instructions fetched each cycle (Total)
system.cpu.fetch.rateDist::underflows               0      0.00%      0.00% # Number of instructions fetched each cycle (Total)
system.cpu.fetch.rateDist::0                 35439188     89.43%     89.43% # Number of instructions fetched each cycle (Total)
system.cpu.fetch.rateDist::1                     3035      0.01%     89.44% # Number of instructions fetched each cycle (Total)
system.cpu.fetch.rateDist::2                    25823      0.07%     89.50% # Number of instructions fetched each cycle (Total)
system.cpu.fetch.rateDist::3                     1095      0.00%     89.51% # Number of instructions fetched each cycle (Total)
system.cpu.fetch.rateDist::4                  4093216     10.33%     99.84% # Number of instructions fetched each cycle (Total)
system.cpu.fetch.rateDist::5                     5054      0.01%     99.85% # Number of instructions fetched each cycle (Total)
system.cpu.fetch.rateDist::6                     6331      0.02%     99.86% # Number of instructions fetched each cycle (Total)
system.cpu.fetch.rateDist::7                     3230      0.01%     99.87% # Number of instructions fetched each cycle (Total)
system.cpu.fetch.rateDist::8                    50445      0.13%    100.00% # Number of instructions fetched each cycle (Total)
system.cpu.fetch.rateDist::overflows                0      0.00%    100.00% # Number of instructions fetched each cycle (Total)
system.cpu.fetch.rateDist::min_value                0                       # Number of instructions fetched each cycle (Total)
system.cpu.fetch.rateDist::max_value                8                       # Number of instructions fetched each cycle (Total)
system.cpu.fetch.rateDist::total             39627417                       # Number of instructions fetched each cycle (Total)
system.cpu.idleCycles                           34186                       # Total number of cycles that the CPU has spent unscheduled due to idling
system.cpu.iew.branchMispredicts                  790                       # Number of branch mispredicts detected at execute
system.cpu.iew.exec_branches                  3594999                       # Number of branches executed
system.cpu.iew.exec_nop                            51                       # number of nop insts executed
system.cpu.iew.exec_rate                     0.374484                       # Inst execution rate
system.cpu.iew.exec_refs                      3843397                       # number of memory reference insts executed
system.cpu.iew.exec_stores                    3678988                       # Number of stores executed
system.cpu.iew.exec_swp                             0                       # number of swp insts executed
system.cpu.iew.iewBlockCycles                  552453                       # Number of cycles IEW is blocking
system.cpu.iew.iewDispLoadInsts                163638                       # Number of dispatched load instructions
system.cpu.iew.iewDispNonSpecInsts                 44                       # Number of dispatched non-speculative instructions
system.cpu.iew.iewDispSquashedInsts               326                       # Number of squashed instructions skipped by dispatch
system.cpu.iew.iewDispStoreInsts              3680050                       # Number of dispatched store instructions
system.cpu.iew.iewDispatchedInsts            14856304                       # Number of instructions dispatched to IQ
system.cpu.iew.iewExecLoadInsts                164409                       # Number of load instructions executed
system.cpu.iew.iewExecSquashedInsts               842                       # Number of squashed instructions skipped in execute
system.cpu.iew.iewExecutedInsts              14852617                       # Number of executed instructions
system.cpu.iew.iewIQFullEvents                     20                       # Number of times the IQ has become full, causing a stall
system.cpu.iew.iewIdleCycles                        0                       # Number of cycles IEW is idle
system.cpu.iew.iewLSQFullEvents               1953617                       # Number of times the LSQ has become full, causing a stall
system.cpu.iew.iewSquashCycles                  37396                       # Number of cycles IEW is squashing
system.cpu.iew.iewUnblockCycles               1953648                       # Number of cycles IEW is unblocking
system.cpu.iew.lsq.thread0.blockedLoads             0                       # Number of blocked loads due to partial load-store forwarding
system.cpu.iew.lsq.thread0.cacheBlocked       1942557                       # Number of times an access to memory failed due to the cache being blocked
system.cpu.iew.lsq.thread0.forwLoads             3761                       # Number of loads that had data forwarded from stores
system.cpu.iew.lsq.thread0.ignoredResponses            4                       # Number of memory responses ignored because the instruction is squashed
system.cpu.iew.lsq.thread0.invAddrLoads             0                       # Number of loads ignored due to an invalid address
system.cpu.iew.lsq.thread0.invAddrSwpfs             0                       # Number of software prefetches ignored due to an invalid address
system.cpu.iew.lsq.thread0.memOrderViolation           13                       # Number of memory ordering violations
system.cpu.iew.lsq.thread0.rescheduledLoads           15                       # Number of loads that were rescheduled
system.cpu.iew.lsq.thread0.squashedLoads         1932                       # Number of loads squashed
system.cpu.iew.lsq.thread0.squashedStores      1211128                       # Number of stores squashed
system.cpu.iew.memOrderViolationEvents             13                       # Number of memory order violations
system.cpu.iew.predictedNotTakenIncorrect          487                       # Number of branches that were predicted not taken incorrectly
system.cpu.iew.predictedTakenIncorrect            303                       # Number of branches that were predicted taken incorrectly
system.cpu.iew.wb_consumers                  16127328                       # num instructions consuming a value
system.cpu.iew.wb_count                      13713777                       # cumulative count of insts written-back
system.cpu.iew.wb_fanout                     0.341660                       # average fanout of values written-back
system.cpu.iew.wb_producers                   5510057                       # num instructions producing a value
system.cpu.iew.wb_rate                       0.345770                       # insts written-back per cycle
system.cpu.iew.wb_sent                       14850444                       # cumulative count of insts sent to commit
system.cpu.int_regfile_reads                 11835300                       # number of integer regfile reads
system.cpu.int_regfile_writes                 7578713                       # number of integer regfile writes
system.cpu.ipc                               0.252133                       # IPC: Instructions Per Cycle
system.cpu.ipc_total                         0.252133                       # IPC: Total IPC of All Threads
system.cpu.iq.FU_type_0::No_OpClass                 7      0.00%      0.00% # Type of FU issued
system.cpu.iq.FU_type_0::IntAlu              11008926     74.12%     74.12% # Type of FU issued
system.cpu.iq.FU_type_0::IntMult                  636      0.00%     74.12% # Type of FU issued
system.cpu.iq.FU_type_0::IntDiv                     3      0.00%     74.12% # Type of FU issued
system.cpu.iq.FU_type_0::FloatAdd                   0      0.00%     74.12% # Type of FU issued
system.cpu.iq.FU_type_0::FloatCmp                   0      0.00%     74.12% # Type of FU issued
system.cpu.iq.FU_type_0::FloatCvt                   0      0.00%     74.12% # Type of FU issued
system.cpu.iq.FU_type_0::FloatMult                  0      0.00%     74.12% # Type of FU issued
system.cpu.iq.FU_type_0::FloatMultAcc               0      0.00%     74.12% # Type of FU issued
system.cpu.iq.FU_type_0::FloatDiv                   0      0.00%     74.12% # Type of FU issued
system.cpu.iq.FU_type_0::FloatMisc                  1      0.00%     74.12% # Type of FU issued
system.cpu.iq.FU_type_0::FloatSqrt                  0      0.00%     74.12% # Type of FU issued
system.cpu.iq.FU_type_0::SimdAdd                   27      0.00%     74.12% # Type of FU issued
system.cpu.iq.FU_type_0::SimdAddAcc                 0      0.00%     74.12% # Type of FU issued
system.cpu.iq.FU_type_0::SimdAlu                   28      0.00%     74.12% # Type of FU issued
system.cpu.iq.FU_type_0::SimdCmp                   28      0.00%     74.12% # Type of FU issued
system.cpu.iq.FU_type_0::SimdCvt                    0      0.00%     74.12% # Type of FU issued
system.cpu.iq.FU_type_0::SimdMisc                  28      0.00%     74.12% # Type of FU issued
system.cpu.iq.FU_type_0::SimdMult                   0      0.00%     74.12% # Type of FU issued
system.cpu.iq.FU_type_0::SimdMultAcc                0      0.00%     74.12% # Type of FU issued
system.cpu.iq.FU_type_0::SimdShift                  0      0.00%     74.12% # Type of FU issued
system.cpu.iq.FU_type_0::SimdShiftAcc               0      0.00%     74.12% # Type of FU issued
system.cpu.iq.FU_type_0::SimdDiv                    0      0.00%     74.12% # Type of FU issued
system.cpu.iq.FU_type_0::SimdSqrt                   0      0.00%     74.12% # Type of FU issued
system.cpu.iq.FU_type_0::SimdFloatAdd               0      0.00%     74.12% # Type of FU issued
system.cpu.iq.FU_type_0::SimdFloatAlu               0      0.00%     74.12% # Type of FU issued
system.cpu.iq.FU_type_0::SimdFloatCmp               0      0.00%     74.12% # Type of FU issued
system.cpu.iq.FU_type_0::SimdFloatCvt               0      0.00%     74.12% # Type of FU issued
system.cpu.iq.FU_type_0::SimdFloatDiv               0      0.00%     74.12% # Type of FU issued
system.cpu.iq.FU_type_0::SimdFloatMisc              0      0.00%     74.12% # Type of FU issued
system.cpu.iq.FU_type_0::SimdFloatMult              0      0.00%     74.12% # Type of FU issued
system.cpu.iq.FU_type_0::SimdFloatMultAcc            0      0.00%     74.12% # Type of FU issued
system.cpu.iq.FU_type_0::SimdFloatSqrt              0      0.00%     74.12% # Type of FU issued
system.cpu.iq.FU_type_0::SimdReduceAdd              0      0.00%     74.12% # Type of FU issued
system.cpu.iq.FU_type_0::SimdReduceAlu              0      0.00%     74.12% # Type of FU issued
system.cpu.iq.FU_type_0::SimdReduceCmp              0      0.00%     74.12% # Type of FU issued
system.cpu.iq.FU_type_0::SimdFloatReduceAdd            0      0.00%     74.12% # Type of FU issued
system.cpu.iq.FU_type_0::SimdFloatReduceCmp            0      0.00%     74.12% # Type of FU issued
system.cpu.iq.FU_type_0::SimdAes                    0      0.00%     74.12% # Type of FU issued
system.cpu.iq.FU_type_0::SimdAesMix                 0      0.00%     74.12% # Type of FU issued
system.cpu.iq.FU_type_0::SimdSha1Hash               0      0.00%     74.12% # Type of FU issued
system.cpu.iq.FU_type_0::SimdSha1Hash2              0      0.00%     74.12% # Type of FU issued
system.cpu.iq.FU_type_0::SimdSha256Hash             0      0.00%     74.12% # Type of FU issued
system.cpu.iq.FU_type_0::SimdSha256Hash2            0      0.00%     74.12% # Type of FU issued
system.cpu.iq.FU_type_0::SimdShaSigma2              0      0.00%     74.12% # Type of FU issued
system.cpu.iq.FU_type_0::SimdShaSigma3              0      0.00%     74.12% # Type of FU issued
system.cpu.iq.FU_type_0::SimdPredAlu                0      0.00%     74.12% # Type of FU issued
system.cpu.iq.FU_type_0::MemRead               164545      1.11%     75.23% # Type of FU issued
system.cpu.iq.FU_type_0::MemWrite             3679234     24.77%    100.00% # Type of FU issued
system.cpu.iq.FU_type_0::FloatMemRead               0      0.00%    100.00% # Type of FU issued
system.cpu.iq.FU_type_0::FloatMemWrite              0      0.00%    100.00% # Type of FU issued
system.cpu.iq.FU_type_0::IprAccess                  0      0.00%    100.00% # Type of FU issued
system.cpu.iq.FU_type_0::InstPrefetch               0      0.00%    100.00% # Type of FU issued
system.cpu.iq.FU_type_0::total               14853463                       # Type of FU issued
system.cpu.iq.fp_alu_accesses                       0                       # Number of floating point alu accesses
system.cpu.iq.fp_inst_queue_reads                   0                       # Number of floating instruction queue reads
system.cpu.iq.fp_inst_queue_wakeup_accesses            0                       # Number of floating instruction queue wakeup accesses
system.cpu.iq.fp_inst_queue_writes                  0                       # Number of floating instruction queue writes
system.cpu.iq.fu_busy_cnt                       23069                       # FU busy when requested
system.cpu.iq.fu_busy_rate                   0.001553                       # FU busy rate (busy events/executed inst)
system.cpu.iq.fu_full::No_OpClass                   0      0.00%      0.00% # attempts to use FU when none available
system.cpu.iq.fu_full::IntAlu                     489      2.12%      2.12% # attempts to use FU when none available
system.cpu.iq.fu_full::IntMult                      0      0.00%      2.12% # attempts to use FU when none available
system.cpu.iq.fu_full::IntDiv                       0      0.00%      2.12% # attempts to use FU when none available
system.cpu.iq.fu_full::FloatAdd                     0      0.00%      2.12% # attempts to use FU when none available
system.cpu.iq.fu_full::FloatCmp                     0      0.00%      2.12% # attempts to use FU when none available
system.cpu.iq.fu_full::FloatCvt                     0      0.00%      2.12% # attempts to use FU when none available
system.cpu.iq.fu_full::FloatMult                    0      0.00%      2.12% # attempts to use FU when none available
system.cpu.iq.fu_full::FloatMultAcc                 0      0.00%      2.12% # attempts to use FU when none available
system.cpu.iq.fu_full::FloatDiv                     0      0.00%      2.12% # attempts to use FU when none available
system.cpu.iq.fu_full::FloatMisc                    0      0.00%      2.12% # attempts to use FU when none available
system.cpu.iq.fu_full::FloatSqrt                    0      0.00%      2.12% # attempts to use FU when none available
system.cpu.iq.fu_full::SimdAdd                      0      0.00%      2.12% # attempts to use FU when none available
system.cpu.iq.fu_full::SimdAddAcc                   0      0.00%      2.12% # attempts to use FU when none available
system.cpu.iq.fu_full::SimdAlu                      2      0.01%      2.13% # attempts to use FU when none available
system.cpu.iq.fu_full::SimdCmp                      3      0.01%      2.14% # attempts to use FU when none available
system.cpu.iq.fu_full::SimdCvt                      0      0.00%      2.14% # attempts to use FU when none available
system.cpu.iq.fu_full::SimdMisc                     0      0.00%      2.14% # attempts to use FU when none available
system.cpu.iq.fu_full::SimdMult                     0      0.00%      2.14% # attempts to use FU when none available
system.cpu.iq.fu_full::SimdMultAcc                  0      0.00%      2.14% # attempts to use FU when none available
system.cpu.iq.fu_full::SimdShift                    0      0.00%      2.14% # attempts to use FU when none available
system.cpu.iq.fu_full::SimdShiftAcc                 0      0.00%      2.14% # attempts to use FU when none available
system.cpu.iq.fu_full::SimdDiv                      0      0.00%      2.14% # attempts to use FU when none available
system.cpu.iq.fu_full::SimdSqrt                     0      0.00%      2.14% # attempts to use FU when none available
system.cpu.iq.fu_full::SimdFloatAdd                 0      0.00%      2.14% # attempts to use FU when none available
system.cpu.iq.fu_full::SimdFloatAlu                 0      0.00%      2.14% # attempts to use FU when none available
system.cpu.iq.fu_full::SimdFloatCmp                 0      0.00%      2.14% # attempts to use FU when none available
system.cpu.iq.fu_full::SimdFloatCvt                 0      0.00%      2.14% # attempts to use FU when none available
system.cpu.iq.fu_full::SimdFloatDiv                 0      0.00%      2.14% # attempts to use FU when none available
system.cpu.iq.fu_full::SimdFloatMisc                0      0.00%      2.14% # attempts to use FU when none available
system.cpu.iq.fu_full::SimdFloatMult                0      0.00%      2.14% # attempts to use FU when none available
system.cpu.iq.fu_full::SimdFloatMultAcc             0      0.00%      2.14% # attempts to use FU when none available
system.cpu.iq.fu_full::SimdFloatSqrt                0      0.00%      2.14% # attempts to use FU when none available
system.cpu.iq.fu_full::SimdReduceAdd                0      0.00%      2.14% # attempts to use FU when none available
system.cpu.iq.fu_full::SimdReduceAlu                0      0.00%      2.14% # attempts to use FU when none available
system.cpu.iq.fu_full::SimdReduceCmp                0      0.00%      2.14% # attempts to use FU when none available
system.cpu.iq.fu_full::SimdFloatReduceAdd            0      0.00%      2.14% # attempts to use FU when none available
system.cpu.iq.fu_full::SimdFloatReduceCmp            0      0.00%      2.14% # attempts to use FU when none available
system.cpu.iq.fu_full::SimdAes                      0      0.00%      2.14% # attempts to use FU when none available
system.cpu.iq.fu_full::SimdAesMix                   0      0.00%      2.14% # attempts to use FU when none available
system.cpu.iq.fu_full::SimdSha1Hash                 0      0.00%      2.14% # attempts to use FU when none available
system.cpu.iq.fu_full::SimdSha1Hash2                0      0.00%      2.14% # attempts to use FU when none available
system.cpu.iq.fu_full::SimdSha256Hash               0      0.00%      2.14% # attempts to use FU when none available
system.cpu.iq.fu_full::SimdSha256Hash2              0      0.00%      2.14% # attempts to use FU when none available
system.cpu.iq.fu_full::SimdShaSigma2                0      0.00%      2.14% # attempts to use FU when none available
system.cpu.iq.fu_full::SimdShaSigma3                0      0.00%      2.14% # attempts to use FU when none available
system.cpu.iq.fu_full::SimdPredAlu                  0      0.00%      2.14% # attempts to use FU when none available
system.cpu.iq.fu_full::MemRead                  21803     94.51%     96.65% # attempts to use FU when none available
system.cpu.iq.fu_full::MemWrite                   772      3.35%    100.00% # attempts to use FU when none available
system.cpu.iq.fu_full::FloatMemRead                 0      0.00%    100.00% # attempts to use FU when none available
system.cpu.iq.fu_full::FloatMemWrite                0      0.00%    100.00% # attempts to use FU when none available
system.cpu.iq.fu_full::IprAccess                    0      0.00%    100.00% # attempts to use FU when none available
system.cpu.iq.fu_full::InstPrefetch                 0      0.00%    100.00% # attempts to use FU when none available
system.cpu.iq.int_alu_accesses               14875809                       # Number of integer alu accesses
system.cpu.iq.int_inst_queue_reads           69356119                       # Number of integer instruction queue reads
system.cpu.iq.int_inst_queue_wakeup_accesses     13713230                       # Number of integer instruction queue wakeup accesses
system.cpu.iq.int_inst_queue_writes          19704087                       # Number of integer instruction queue writes
system.cpu.iq.iqInstsAdded                   14856209                       # Number of instructions added to the IQ (excludes non-spec)
system.cpu.iq.iqInstsIssued                  14853463                       # Number of instructions issued
system.cpu.iq.iqNonSpecInstsAdded                  44                       # Number of non-speculative instructions added to the IQ
system.cpu.iq.iqSquashedInstsExamined         4849208                       # Number of squashed instructions iterated over during squash; mainly for profiling
system.cpu.iq.iqSquashedInstsIssued               189                       # Number of squashed instructions issued
system.cpu.iq.iqSquashedNonSpecRemoved             13                       # Number of squashed non-spec instructions that were removed
system.cpu.iq.iqSquashedOperandsExamined      5694043                       # Number of squashed operands that are examined and possibly removed from graph
system.cpu.iq.issued_per_cycle::samples      39627417                       # Number of insts issued each cycle
system.cpu.iq.issued_per_cycle::mean         0.374828                       # Number of insts issued each cycle
system.cpu.iq.issued_per_cycle::stdev        1.025693                       # Number of insts issued each cycle
system.cpu.iq.issued_per_cycle::underflows            0      0.00%      0.00% # Number of insts issued each cycle
system.cpu.iq.issued_per_cycle::0            33832057     85.38%     85.38% # Number of insts issued each cycle
system.cpu.iq.issued_per_cycle::1             2090458      5.28%     90.65% # Number of insts issued each cycle
system.cpu.iq.issued_per_cycle::2               32735      0.08%     90.73% # Number of insts issued each cycle
system.cpu.iq.issued_per_cycle::3             2069424      5.22%     95.96% # Number of insts issued each cycle
system.cpu.iq.issued_per_cycle::4             1551378      3.91%     99.87% # Number of insts issued each cycle
system.cpu.iq.issued_per_cycle::5               28125      0.07%     99.94% # Number of insts issued each cycle
system.cpu.iq.issued_per_cycle::6               20261      0.05%     99.99% # Number of insts issued each cycle
system.cpu.iq.issued_per_cycle::7                2272      0.01%    100.00% # Number of insts issued each cycle
system.cpu.iq.issued_per_cycle::8                 707      0.00%    100.00% # Number of insts issued each cycle
system.cpu.iq.issued_per_cycle::overflows            0      0.00%    100.00% # Number of insts issued each cycle
system.cpu.iq.issued_per_cycle::min_value            0                       # Number of insts issued each cycle
system.cpu.iq.issued_per_cycle::max_value            8                       # Number of insts issued each cycle
system.cpu.iq.issued_per_cycle::total        39627417                       # Number of insts issued each cycle
system.cpu.iq.rate                           0.374505                       # Inst issue rate
system.cpu.iq.vec_alu_accesses                    716                       # Number of vector alu accesses
system.cpu.iq.vec_inst_queue_reads               1478                       # Number of vector instruction queue reads
system.cpu.iq.vec_inst_queue_wakeup_accesses          547                       # Number of vector instruction queue wakeup accesses
system.cpu.iq.vec_inst_queue_writes              1387                       # Number of vector instruction queue writes
system.cpu.itb.accesses                             0                       # DTB accesses
system.cpu.itb.align_faults                         0                       # Number of TLB faults due to alignment restrictions
system.cpu.itb.domain_faults                        0                       # Number of TLB faults due to domain restrictions
system.cpu.itb.flush_entries                        0                       # Number of entries that have been flushed from TLB
system.cpu.itb.flush_tlb                            0                       # Number of times complete TLB was flushed
system.cpu.itb.flush_tlb_asid                       0                       # Number of times TLB was flushed by ASID
system.cpu.itb.flush_tlb_mva                        0                       # Number of times TLB was flushed by MVA
system.cpu.itb.flush_tlb_mva_asid                   0                       # Number of times TLB was flushed by MVA & ASID
system.cpu.itb.hits                                 0                       # DTB hits
system.cpu.itb.inst_accesses                        0                       # ITB inst accesses
system.cpu.itb.inst_hits                            0                       # ITB inst hits
system.cpu.itb.inst_misses                          0                       # ITB inst misses
system.cpu.itb.misses                               0                       # DTB misses
system.cpu.itb.perms_faults                         0                       # Number of TLB faults due to permissions restrictions
system.cpu.itb.prefetch_faults                      0                       # Number of TLB faults due to prefetch
system.cpu.itb.read_accesses                        0                       # DTB read accesses
system.cpu.itb.read_hits                            0                       # DTB read hits
system.cpu.itb.read_misses                          0                       # DTB read misses
system.cpu.itb.stage2_mmu.stage2_tlb.accesses            0                       # DTB accesses
system.cpu.itb.stage2_mmu.stage2_tlb.align_faults            0                       # Number of TLB faults due to alignment restrictions
system.cpu.itb.stage2_mmu.stage2_tlb.domain_faults            0                       # Number of TLB faults due to domain restrictions
system.cpu.itb.stage2_mmu.stage2_tlb.flush_entries            0                       # Number of entries that have been flushed from TLB
system.cpu.itb.stage2_mmu.stage2_tlb.flush_tlb            0                       # Number of times complete TLB was flushed
system.cpu.itb.stage2_mmu.stage2_tlb.flush_tlb_asid            0                       # Number of times TLB was flushed by ASID
system.cpu.itb.stage2_mmu.stage2_tlb.flush_tlb_mva            0                       # Number of times TLB was flushed by MVA
system.cpu.itb.stage2_mmu.stage2_tlb.flush_tlb_mva_asid            0                       # Number of times TLB was flushed by MVA & ASID
system.cpu.itb.stage2_mmu.stage2_tlb.hits            0                       # DTB hits
system.cpu.itb.stage2_mmu.stage2_tlb.inst_accesses            0                       # ITB inst accesses
system.cpu.itb.stage2_mmu.stage2_tlb.inst_hits            0                       # ITB inst hits
system.cpu.itb.stage2_mmu.stage2_tlb.inst_misses            0                       # ITB inst misses
system.cpu.itb.stage2_mmu.stage2_tlb.misses            0                       # DTB misses
system.cpu.itb.stage2_mmu.stage2_tlb.perms_faults            0                       # Number of TLB faults due to permissions restrictions
system.cpu.itb.stage2_mmu.stage2_tlb.prefetch_faults            0                       # Number of TLB faults due to prefetch
system.cpu.itb.stage2_mmu.stage2_tlb.read_accesses            0                       # DTB read accesses
system.cpu.itb.stage2_mmu.stage2_tlb.read_hits            0                       # DTB read hits
system.cpu.itb.stage2_mmu.stage2_tlb.read_misses            0                       # DTB read misses
system.cpu.itb.stage2_mmu.stage2_tlb.walker.walkRequestOrigin_Requested::Data            0                       # Table walker requests started/completed, data/inst
system.cpu.itb.stage2_mmu.stage2_tlb.walker.walkRequestOrigin_Requested::Inst            0                       # Table walker requests started/completed, data/inst
system.cpu.itb.stage2_mmu.stage2_tlb.walker.walkRequestOrigin_Requested::total            0                       # Table walker requests started/completed, data/inst
system.cpu.itb.stage2_mmu.stage2_tlb.walker.walkRequestOrigin_Completed::Data            0                       # Table walker requests started/completed, data/inst
system.cpu.itb.stage2_mmu.stage2_tlb.walker.walkRequestOrigin_Completed::Inst            0                       # Table walker requests started/completed, data/inst
system.cpu.itb.stage2_mmu.stage2_tlb.walker.walkRequestOrigin_Completed::total            0                       # Table walker requests started/completed, data/inst
system.cpu.itb.stage2_mmu.stage2_tlb.walker.walkRequestOrigin::total            0                       # Table walker requests started/completed, data/inst
system.cpu.itb.stage2_mmu.stage2_tlb.walker.walks            0                       # Table walker walks requested
system.cpu.itb.stage2_mmu.stage2_tlb.write_accesses            0                       # DTB write accesses
system.cpu.itb.stage2_mmu.stage2_tlb.write_hits            0                       # DTB write hits
system.cpu.itb.stage2_mmu.stage2_tlb.write_misses            0                       # DTB write misses
system.cpu.itb.walker.walkRequestOrigin_Requested::Data            0                       # Table walker requests started/completed, data/inst
system.cpu.itb.walker.walkRequestOrigin_Requested::Inst            0                       # Table walker requests started/completed, data/inst
system.cpu.itb.walker.walkRequestOrigin_Requested::total            0                       # Table walker requests started/completed, data/inst
system.cpu.itb.walker.walkRequestOrigin_Completed::Data            0                       # Table walker requests started/completed, data/inst
system.cpu.itb.walker.walkRequestOrigin_Completed::Inst            0                       # Table walker requests started/completed, data/inst
system.cpu.itb.walker.walkRequestOrigin_Completed::total            0                       # Table walker requests started/completed, data/inst
system.cpu.itb.walker.walkRequestOrigin::total            0                       # Table walker requests started/completed, data/inst
system.cpu.itb.walker.walks                         0                       # Table walker walks requested
system.cpu.itb.write_accesses                       0                       # DTB write accesses
system.cpu.itb.write_hits                           0                       # DTB write hits
system.cpu.itb.write_misses                         0                       # DTB write misses
system.cpu.memDep0.conflictingLoads              2490                       # Number of conflicting loads.
system.cpu.memDep0.conflictingStores             2612                       # Number of conflicting stores.
system.cpu.memDep0.insertedLoads               163638                       # Number of loads inserted to the mem dependence unit.
system.cpu.memDep0.insertedStores             3680050                       # Number of stores inserted to the mem dependence unit.
system.cpu.misc_regfile_reads                35980648                       # number of misc regfile reads
system.cpu.misc_regfile_writes                     81                       # number of misc regfile writes
system.cpu.numCycles                         39661603                       # number of cpu cycles simulated
system.cpu.numWorkItemsCompleted                    0                       # number of work items this cpu completed
system.cpu.numWorkItemsStarted                      0                       # number of work items this cpu started
system.cpu.rename.BlockCycles                 2506745                       # Number of cycles rename is blocking
system.cpu.rename.CommittedMaps              12520059                       # Number of HB maps that are committed
system.cpu.rename.IQFullEvents                   8673                       # Number of times rename has blocked due to IQ full
system.cpu.rename.IdleCycles                   981171                       # Number of cycles rename is idle
system.cpu.rename.LQFullEvents                    360                       # Number of times rename has blocked due to LQ full
system.cpu.rename.ROBFullEvents                     3                       # Number of times rename has blocked due to ROB full
system.cpu.rename.RenameLookups              37070410                       # Number of register rename lookups that rename has made
system.cpu.rename.RenamedInsts               14860236                       # Number of instructions processed by rename
system.cpu.rename.RenamedOperands            18584242                       # Number of destination operands rename has renamed
system.cpu.rename.RunCycles                   1830115                       # Number of cycles rename is running
system.cpu.rename.SQFullEvents               34219826                       # Number of times rename has blocked due to SQ full
system.cpu.rename.SquashCycles                  37396                       # Number of cycles rename is squashing
system.cpu.rename.UnblockCycles              34266690                       # Number of cycles rename is unblocking
system.cpu.rename.UndoneMaps                  6064118                       # Number of HB maps that are undone due to squashing
system.cpu.rename.int_rename_lookups         11846609                       # Number of integer rename lookups
system.cpu.rename.serializeStallCycles           5300                       # count of cycles rename stalled for serializing inst
system.cpu.rename.serializingInsts                109                       # count of serializing insts renamed
system.cpu.rename.skidInsts                   8537008                       # count of insts added to the skid buffer
system.cpu.rename.tempSerializingInsts             47                       # count of temporary serializing insts renamed
system.cpu.rename.vec_rename_lookups             1001                       # Number of vector rename lookups
system.cpu.rob.rob_reads                     53223171                       # The number of ROB reads
system.cpu.rob.rob_writes                    30007520                       # The number of ROB writes
system.cpu.timesIdled                             363                       # Number of times that the entire CPU went into an idle state and unscheduled itself
system.cpu.vec_regfile_reads                      607                       # number of vector regfile reads
system.cpu.vec_regfile_writes                     129                       # number of vector regfile writes
system.cpu.workload.numSyscalls                    10                       # Number of system calls
system.membus.snoop_filter.hit_multi_requests            0                       # Number of requests hitting in the snoop filter with multiple (>1) holders of the requested data.
system.membus.snoop_filter.hit_multi_snoops            0                       # Number of snoops hitting in the snoop filter with multiple (>1) holders of the requested data.
system.membus.snoop_filter.hit_single_requests      2316081                       # Number of requests hitting in the snoop filter with a single holder of the requested data.
system.membus.snoop_filter.hit_single_snoops            0                       # Number of snoops hitting in the snoop filter with a single holder of the requested data.
system.membus.snoop_filter.tot_requests       4665289                       # Total number of requests made to the snoop filter.
system.membus.snoop_filter.tot_snoops               0                       # Total number of snoops made to the snoop filter.
system.tol2bus.snoop_filter.hit_multi_requests            1                       # Number of requests hitting in the snoop filter with multiple (>1) holders of the requested data.
system.tol2bus.snoop_filter.hit_multi_snoops            0                       # Number of snoops hitting in the snoop filter with multiple (>1) holders of the requested data.
system.tol2bus.snoop_filter.hit_single_requests      2348158                       # Number of requests hitting in the snoop filter with a single holder of the requested data.
system.tol2bus.snoop_filter.hit_single_snoops          131                       # Number of snoops hitting in the snoop filter with a single holder of the requested data.
system.tol2bus.snoop_filter.tot_requests      4697470                       # Total number of requests made to the snoop filter.
system.tol2bus.snoop_filter.tot_snoops            131                       # Total number of snoops made to the snoop filter.
system.membus.trans_dist::ReadResp                556                       # Transaction distribution
system.membus.trans_dist::WritebackDirty      2314876                       # Transaction distribution
system.membus.trans_dist::CleanEvict              409                       # Transaction distribution
system.membus.trans_dist::ReadExReq              2725                       # Transaction distribution
system.membus.trans_dist::ReadExResp             2725                       # Transaction distribution
system.membus.trans_dist::ReadSharedReq           556                       # Transaction distribution
system.membus.trans_dist::InvalidateReq       2345927                       # Transaction distribution
system.membus.pkt_count_system.l2.mem_side::system.mem_ctrls.port      4667774                       # Packet count per connected master and slave (bytes)
system.membus.pkt_count::total                4667774                       # Packet count per connected master and slave (bytes)
system.membus.pkt_size_system.l2.mem_side::system.mem_ctrls.port    148362048                       # Cumulative packet size per connected master and slave (bytes)
system.membus.pkt_size::total               148362048                       # Cumulative packet size per connected master and slave (bytes)
system.membus.snoops                                0                       # Total snoops (count)
system.membus.snoopTraffic                          0                       # Total snoop traffic (bytes)
system.membus.snoop_fanout::samples           2349208                       # Request fanout histogram
system.membus.snoop_fanout::mean                    0                       # Request fanout histogram
system.membus.snoop_fanout::stdev                   0                       # Request fanout histogram
system.membus.snoop_fanout::underflows              0      0.00%      0.00% # Request fanout histogram
system.membus.snoop_fanout::0                 2349208    100.00%    100.00% # Request fanout histogram
system.membus.snoop_fanout::1                       0      0.00%    100.00% # Request fanout histogram
system.membus.snoop_fanout::overflows               0      0.00%    100.00% # Request fanout histogram
system.membus.snoop_fanout::min_value               0                       # Request fanout histogram
system.membus.snoop_fanout::max_value               0                       # Request fanout histogram
system.membus.snoop_fanout::total             2349208                       # Request fanout histogram
system.membus.reqLayer0.occupancy         14216293000                       # Layer occupancy (ticks)
system.membus.reqLayer0.utilization              71.7                       # Layer utilization (%)
system.membus.respLayer1.occupancy           17460250                       # Layer occupancy (ticks)
system.membus.respLayer1.utilization              0.1                       # Layer utilization (%)
system.membus.power_state.pwrStateResidencyTicks::UNDEFINED  19830801000                       # Cumulative time (in ticks) in various power states
system.tol2bus.trans_dist::ReadResp               639                       # Transaction distribution
system.tol2bus.trans_dist::WritebackDirty      4662558                       # Transaction distribution
system.tol2bus.trans_dist::WritebackClean          361                       # Transaction distribution
system.tol2bus.trans_dist::CleanEvict             658                       # Transaction distribution
system.tol2bus.trans_dist::ReadExReq             2743                       # Transaction distribution
system.tol2bus.trans_dist::ReadExResp            2743                       # Transaction distribution
system.tol2bus.trans_dist::ReadCleanReq           489                       # Transaction distribution
system.tol2bus.trans_dist::ReadSharedReq          150                       # Transaction distribution
system.tol2bus.trans_dist::InvalidateReq      2345930                       # Transaction distribution
system.tol2bus.trans_dist::InvalidateResp      2345928                       # Transaction distribution
system.tol2bus.pkt_count_system.cpu.icache.mem_side::system.l2.cpu_side         1339                       # Packet count per connected master and slave (bytes)
system.tol2bus.pkt_count_system.cpu.dcache.mem_side::system.l2.cpu_side      7045441                       # Packet count per connected master and slave (bytes)
system.tol2bus.pkt_count::total               7046780                       # Packet count per connected master and slave (bytes)
system.tol2bus.pkt_size_system.cpu.icache.mem_side::system.l2.cpu_side        54400                       # Cumulative packet size per connected master and slave (bytes)
system.tol2bus.pkt_size_system.cpu.dcache.mem_side::system.l2.cpu_side    150436608                       # Cumulative packet size per connected master and slave (bytes)
system.tol2bus.pkt_size::total              150491008                       # Cumulative packet size per connected master and slave (bytes)
system.tol2bus.snoops                         2315419                       # Total snoops (count)
system.tol2bus.snoopTraffic                 148152256                       # Total snoop traffic (bytes)
system.tol2bus.snoop_fanout::samples          4664731                       # Request fanout histogram
system.tol2bus.snoop_fanout::mean            0.000028                       # Request fanout histogram
system.tol2bus.snoop_fanout::stdev           0.005319                       # Request fanout histogram
system.tol2bus.snoop_fanout::underflows             0      0.00%      0.00% # Request fanout histogram
system.tol2bus.snoop_fanout::0                4664599    100.00%    100.00% # Request fanout histogram
system.tol2bus.snoop_fanout::1                    132      0.00%    100.00% # Request fanout histogram
system.tol2bus.snoop_fanout::2                      0      0.00%    100.00% # Request fanout histogram
system.tol2bus.snoop_fanout::overflows              0      0.00%    100.00% # Request fanout histogram
system.tol2bus.snoop_fanout::min_value              0                       # Request fanout histogram
system.tol2bus.snoop_fanout::max_value              1                       # Request fanout histogram
system.tol2bus.snoop_fanout::total            4664731                       # Request fanout histogram
system.tol2bus.reqLayer0.occupancy         4696775000                       # Layer occupancy (ticks)
system.tol2bus.reqLayer0.utilization             23.7                       # Layer utilization (%)
system.tol2bus.respLayer1.occupancy        1177303500                       # Layer occupancy (ticks)
system.tol2bus.respLayer1.utilization             5.9                       # Layer utilization (%)
system.tol2bus.respLayer0.occupancy            733500                       # Layer occupancy (ticks)
system.tol2bus.respLayer0.utilization             0.0                       # Layer utilization (%)
system.tol2bus.power_state.pwrStateResidencyTicks::UNDEFINED  19830801000                       # Cumulative time (in ticks) in various power states
system.voltage_domain.voltage                       1                       # Voltage in Volts
system.clk_domain.clock                          1000                       # Clock period in ticks
system.l2.demand_hits::.cpu.inst                   67                       # number of demand (read+write) hits
system.l2.demand_hits::.cpu.data                   34                       # number of demand (read+write) hits
system.l2.demand_hits::total                      101                       # number of demand (read+write) hits
system.l2.overall_hits::.cpu.inst                  67                       # number of overall hits
system.l2.overall_hits::.cpu.data                  34                       # number of overall hits
system.l2.overall_hits::total                     101                       # number of overall hits
system.l2.demand_misses::.cpu.inst                422                       # number of demand (read+write) misses
system.l2.demand_misses::.cpu.data               2859                       # number of demand (read+write) misses
system.l2.demand_misses::total                   3281                       # number of demand (read+write) misses
system.l2.overall_misses::.cpu.inst               422                       # number of overall misses
system.l2.overall_misses::.cpu.data              2859                       # number of overall misses
system.l2.overall_misses::total                  3281                       # number of overall misses
system.l2.demand_miss_latency::.cpu.inst     33818000                       # number of demand (read+write) miss cycles
system.l2.demand_miss_latency::.cpu.data    228376500                       # number of demand (read+write) miss cycles
system.l2.demand_miss_latency::total        262194500                       # number of demand (read+write) miss cycles
system.l2.overall_miss_latency::.cpu.inst     33818000                       # number of overall miss cycles
system.l2.overall_miss_latency::.cpu.data    228376500                       # number of overall miss cycles
system.l2.overall_miss_latency::total       262194500                       # number of overall miss cycles
system.l2.demand_accesses::.cpu.inst              489                       # number of demand (read+write) accesses
system.l2.demand_accesses::.cpu.data             2893                       # number of demand (read+write) accesses
system.l2.demand_accesses::total                 3382                       # number of demand (read+write) accesses
system.l2.overall_accesses::.cpu.inst             489                       # number of overall (read+write) accesses
system.l2.overall_accesses::.cpu.data            2893                       # number of overall (read+write) accesses
system.l2.overall_accesses::total                3382                       # number of overall (read+write) accesses
system.l2.demand_miss_rate::.cpu.inst        0.862986                       # miss rate for demand accesses
system.l2.demand_miss_rate::.cpu.data        0.988247                       # miss rate for demand accesses
system.l2.demand_miss_rate::total            0.970136                       # miss rate for demand accesses
system.l2.overall_miss_rate::.cpu.inst       0.862986                       # miss rate for overall accesses
system.l2.overall_miss_rate::.cpu.data       0.988247                       # miss rate for overall accesses
system.l2.overall_miss_rate::total           0.970136                       # miss rate for overall accesses
system.l2.demand_avg_miss_latency::.cpu.inst 80137.440758                       # average overall miss latency
system.l2.demand_avg_miss_latency::.cpu.data 79879.853095                       # average overall miss latency
system.l2.demand_avg_miss_latency::total 79912.983846                       # average overall miss latency
system.l2.overall_avg_miss_latency::.cpu.inst 80137.440758                       # average overall miss latency
system.l2.overall_avg_miss_latency::.cpu.data 79879.853095                       # average overall miss latency
system.l2.overall_avg_miss_latency::total 79912.983846                       # average overall miss latency
system.l2.blocked_cycles::no_mshrs                  0                       # number of cycles access was blocked
system.l2.blocked_cycles::no_targets                0                       # number of cycles access was blocked
system.l2.blocked::no_mshrs                         0                       # number of cycles access was blocked
system.l2.blocked::no_targets                       0                       # number of cycles access was blocked
system.l2.avg_blocked_cycles::no_mshrs            nan                       # average number of cycles each access was blocked
system.l2.avg_blocked_cycles::no_targets          nan                       # average number of cycles each access was blocked
system.l2.writebacks::.writebacks             2314879                       # number of writebacks
system.l2.writebacks::total                   2314879                       # number of writebacks
system.l2.demand_mshr_misses::.cpu.inst           422                       # number of demand (read+write) MSHR misses
system.l2.demand_mshr_misses::.cpu.data          2859                       # number of demand (read+write) MSHR misses
system.l2.demand_mshr_misses::total              3281                       # number of demand (read+write) MSHR misses
system.l2.overall_mshr_misses::.cpu.inst          422                       # number of overall MSHR misses
system.l2.overall_mshr_misses::.cpu.data         2859                       # number of overall MSHR misses
system.l2.overall_mshr_misses::total             3281                       # number of overall MSHR misses
system.l2.demand_mshr_miss_latency::.cpu.inst     29598000                       # number of demand (read+write) MSHR miss cycles
system.l2.demand_mshr_miss_latency::.cpu.data    199786001                       # number of demand (read+write) MSHR miss cycles
system.l2.demand_mshr_miss_latency::total    229384001                       # number of demand (read+write) MSHR miss cycles
system.l2.overall_mshr_miss_latency::.cpu.inst     29598000                       # number of overall MSHR miss cycles
system.l2.overall_mshr_miss_latency::.cpu.data    199786001                       # number of overall MSHR miss cycles
system.l2.overall_mshr_miss_latency::total    229384001                       # number of overall MSHR miss cycles
system.l2.demand_mshr_miss_rate::.cpu.inst     0.862986                       # mshr miss rate for demand accesses
system.l2.demand_mshr_miss_rate::.cpu.data     0.988247                       # mshr miss rate for demand accesses
system.l2.demand_mshr_miss_rate::total       0.970136                       # mshr miss rate for demand accesses
system.l2.overall_mshr_miss_rate::.cpu.inst     0.862986                       # mshr miss rate for overall accesses
system.l2.overall_mshr_miss_rate::.cpu.data     0.988247                       # mshr miss rate for overall accesses
system.l2.overall_mshr_miss_rate::total      0.970136                       # mshr miss rate for overall accesses
system.l2.demand_avg_mshr_miss_latency::.cpu.inst 70137.440758                       # average overall mshr miss latency
system.l2.demand_avg_mshr_miss_latency::.cpu.data 69879.678559                       # average overall mshr miss latency
system.l2.demand_avg_mshr_miss_latency::total 69912.831759                       # average overall mshr miss latency
system.l2.overall_avg_mshr_miss_latency::.cpu.inst 70137.440758                       # average overall mshr miss latency
system.l2.overall_avg_mshr_miss_latency::.cpu.data 69879.678559                       # average overall mshr miss latency
system.l2.overall_avg_mshr_miss_latency::total 69912.831759                       # average overall mshr miss latency
system.l2.replacements                        2315419                       # number of replacements
system.l2.WritebackDirty_hits::.writebacks      2347679                       # number of WritebackDirty hits
system.l2.WritebackDirty_hits::total          2347679                       # number of WritebackDirty hits
system.l2.WritebackDirty_accesses::.writebacks      2347679                       # number of WritebackDirty accesses(hits+misses)
system.l2.WritebackDirty_accesses::total      2347679                       # number of WritebackDirty accesses(hits+misses)
system.l2.WritebackClean_hits::.writebacks          361                       # number of WritebackClean hits
system.l2.WritebackClean_hits::total              361                       # number of WritebackClean hits
system.l2.WritebackClean_accesses::.writebacks          361                       # number of WritebackClean accesses(hits+misses)
system.l2.WritebackClean_accesses::total          361                       # number of WritebackClean accesses(hits+misses)
system.l2.ReadExReq_hits::.cpu.data                18                       # number of ReadExReq hits
system.l2.ReadExReq_hits::total                    18                       # number of ReadExReq hits
system.l2.ReadExReq_misses::.cpu.data            2725                       # number of ReadExReq misses
system.l2.ReadExReq_misses::total                2725                       # number of ReadExReq misses
system.l2.ReadExReq_miss_latency::.cpu.data    216327500                       # number of ReadExReq miss cycles
system.l2.ReadExReq_miss_latency::total     216327500                       # number of ReadExReq miss cycles
system.l2.ReadExReq_accesses::.cpu.data          2743                       # number of ReadExReq accesses(hits+misses)
system.l2.ReadExReq_accesses::total              2743                       # number of ReadExReq accesses(hits+misses)
system.l2.ReadExReq_miss_rate::.cpu.data     0.993438                       # miss rate for ReadExReq accesses
system.l2.ReadExReq_miss_rate::total         0.993438                       # miss rate for ReadExReq accesses
system.l2.ReadExReq_avg_miss_latency::.cpu.data 79386.238532                       # average ReadExReq miss latency
system.l2.ReadExReq_avg_miss_latency::total 79386.238532                       # average ReadExReq miss latency
system.l2.ReadExReq_mshr_misses::.cpu.data         2725                       # number of ReadExReq MSHR misses
system.l2.ReadExReq_mshr_misses::total           2725                       # number of ReadExReq MSHR misses
system.l2.ReadExReq_mshr_miss_latency::.cpu.data    189077001                       # number of ReadExReq MSHR miss cycles
system.l2.ReadExReq_mshr_miss_latency::total    189077001                       # number of ReadExReq MSHR miss cycles
system.l2.ReadExReq_mshr_miss_rate::.cpu.data     0.993438                       # mshr miss rate for ReadExReq accesses
system.l2.ReadExReq_mshr_miss_rate::total     0.993438                       # mshr miss rate for ReadExReq accesses
system.l2.ReadExReq_avg_mshr_miss_latency::.cpu.data 69386.055413                       # average ReadExReq mshr miss latency
system.l2.ReadExReq_avg_mshr_miss_latency::total 69386.055413                       # average ReadExReq mshr miss latency
system.l2.ReadCleanReq_hits::.cpu.inst             67                       # number of ReadCleanReq hits
system.l2.ReadCleanReq_hits::total                 67                       # number of ReadCleanReq hits
system.l2.ReadCleanReq_misses::.cpu.inst          422                       # number of ReadCleanReq misses
system.l2.ReadCleanReq_misses::total              422                       # number of ReadCleanReq misses
system.l2.ReadCleanReq_miss_latency::.cpu.inst     33818000                       # number of ReadCleanReq miss cycles
system.l2.ReadCleanReq_miss_latency::total     33818000                       # number of ReadCleanReq miss cycles
system.l2.ReadCleanReq_accesses::.cpu.inst          489                       # number of ReadCleanReq accesses(hits+misses)
system.l2.ReadCleanReq_accesses::total            489                       # number of ReadCleanReq accesses(hits+misses)
system.l2.ReadCleanReq_miss_rate::.cpu.inst     0.862986                       # miss rate for ReadCleanReq accesses
system.l2.ReadCleanReq_miss_rate::total      0.862986                       # miss rate for ReadCleanReq accesses
system.l2.ReadCleanReq_avg_miss_latency::.cpu.inst 80137.440758                       # average ReadCleanReq miss latency
system.l2.ReadCleanReq_avg_miss_latency::total 80137.440758                       # average ReadCleanReq miss latency
system.l2.ReadCleanReq_mshr_misses::.cpu.inst          422                       # number of ReadCleanReq MSHR misses
system.l2.ReadCleanReq_mshr_misses::total          422                       # number of ReadCleanReq MSHR misses
system.l2.ReadCleanReq_mshr_miss_latency::.cpu.inst     29598000                       # number of ReadCleanReq MSHR miss cycles
system.l2.ReadCleanReq_mshr_miss_latency::total     29598000                       # number of ReadCleanReq MSHR miss cycles
system.l2.ReadCleanReq_mshr_miss_rate::.cpu.inst     0.862986                       # mshr miss rate for ReadCleanReq accesses
[...]
system.cpu.dcache.overall_misses::.cpu.data      2368354                       # number of overall misses
system.cpu.dcache.overall_misses::total       2368354                       # number of overall misses
system.cpu.dcache.demand_miss_latency::.cpu.data  78971483484                       # number of demand (read+write) miss cycles
system.cpu.dcache.demand_miss_latency::total  78971483484                       # number of demand (read+write) miss cycles
system.cpu.dcache.overall_miss_latency::.cpu.data  78971483484                       # number of overall miss cycles
system.cpu.dcache.overall_miss_latency::total  78971483484                       # number of overall miss cycles
system.cpu.dcache.demand_accesses::.cpu.data      2627923                       # number of demand (read+write) accesses
system.cpu.dcache.demand_accesses::total      2627923                       # number of demand (read+write) accesses
system.cpu.dcache.overall_accesses::.cpu.data      2627931                       # number of overall (read+write) accesses
system.cpu.dcache.overall_accesses::total      2627931                       # number of overall (read+write) accesses
system.cpu.dcache.demand_miss_rate::.cpu.data     0.901225                       # miss rate for demand accesses
system.cpu.dcache.demand_miss_rate::total     0.901225                       # miss rate for demand accesses
system.cpu.dcache.overall_miss_rate::.cpu.data     0.901224                       # miss rate for overall accesses
system.cpu.dcache.overall_miss_rate::total     0.901224                       # miss rate for overall accesses
system.cpu.dcache.demand_avg_miss_latency::.cpu.data 33344.501505                       # average overall miss latency
system.cpu.dcache.demand_avg_miss_latency::total 33344.501505                       # average overall miss latency
system.cpu.dcache.overall_avg_miss_latency::.cpu.data 33344.459267                       # average overall miss latency
system.cpu.dcache.overall_avg_miss_latency::total 33344.459267                       # average overall miss latency
system.cpu.dcache.blocked_cycles::no_mshrs     35551138                       # number of cycles access was blocked
system.cpu.dcache.blocked_cycles::no_targets            0                       # number of cycles access was blocked
system.cpu.dcache.blocked::no_mshrs           2236393                       # number of cycles access was blocked
system.cpu.dcache.blocked::no_targets               0                       # number of cycles access was blocked
system.cpu.dcache.avg_blocked_cycles::no_mshrs    15.896642                       # average number of cycles each access was blocked
system.cpu.dcache.avg_blocked_cycles::no_targets          nan                       # average number of cycles each access was blocked
system.cpu.dcache.writebacks::.writebacks      2347679                       # number of writebacks
system.cpu.dcache.writebacks::total           2347679                       # number of writebacks
system.cpu.dcache.demand_mshr_hits::.cpu.data        19530                       # number of demand (read+write) MSHR hits
system.cpu.dcache.demand_mshr_hits::total        19530                       # number of demand (read+write) MSHR hits
system.cpu.dcache.overall_mshr_hits::.cpu.data        19530                       # number of overall MSHR hits
system.cpu.dcache.overall_mshr_hits::total        19530                       # number of overall MSHR hits
system.cpu.dcache.demand_mshr_misses::.cpu.data      2348821                       # number of demand (read+write) MSHR misses
system.cpu.dcache.demand_mshr_misses::total      2348821                       # number of demand (read+write) MSHR misses
system.cpu.dcache.overall_mshr_misses::.cpu.data      2348824                       # number of overall MSHR misses
system.cpu.dcache.overall_mshr_misses::total      2348824                       # number of overall MSHR misses
system.cpu.dcache.demand_mshr_miss_latency::.cpu.data  75460967851                       # number of demand (read+write) MSHR miss cycles
system.cpu.dcache.demand_mshr_miss_latency::total  75460967851                       # number of demand (read+write) MSHR miss cycles
system.cpu.dcache.overall_mshr_miss_latency::.cpu.data  75461229851                       # number of overall MSHR miss cycles
system.cpu.dcache.overall_mshr_miss_latency::total  75461229851                       # number of overall MSHR miss cycles
system.cpu.dcache.demand_mshr_miss_rate::.cpu.data     0.893794                       # mshr miss rate for demand accesses
system.cpu.dcache.demand_mshr_miss_rate::total     0.893794                       # mshr miss rate for demand accesses
system.cpu.dcache.overall_mshr_miss_rate::.cpu.data     0.893792                       # mshr miss rate for overall accesses
system.cpu.dcache.overall_mshr_miss_rate::total     0.893792                       # mshr miss rate for overall accesses
system.cpu.dcache.demand_avg_mshr_miss_latency::.cpu.data 32127.168418                       # average overall mshr miss latency
system.cpu.dcache.demand_avg_mshr_miss_latency::total 32127.168418                       # average overall mshr miss latency
system.cpu.dcache.overall_avg_mshr_miss_latency::.cpu.data 32127.238929                       # average overall mshr miss latency
system.cpu.dcache.overall_avg_mshr_miss_latency::total 32127.238929                       # average overall mshr miss latency
system.cpu.dcache.replacements                2347797                       # number of replacements
system.cpu.dcache.ReadReq_hits::.cpu.data       158633                       # number of ReadReq hits
system.cpu.dcache.ReadReq_hits::total          158633                       # number of ReadReq hits
system.cpu.dcache.ReadReq_misses::.cpu.data          399                       # number of ReadReq misses
system.cpu.dcache.ReadReq_misses::total           399                       # number of ReadReq misses
system.cpu.dcache.ReadReq_miss_latency::.cpu.data     28323500                       # number of ReadReq miss cycles
system.cpu.dcache.ReadReq_miss_latency::total     28323500                       # number of ReadReq miss cycles
system.cpu.dcache.ReadReq_accesses::.cpu.data       159032                       # number of ReadReq accesses(hits+misses)
system.cpu.dcache.ReadReq_accesses::total       159032                       # number of ReadReq accesses(hits+misses)
system.cpu.dcache.ReadReq_miss_rate::.cpu.data     0.002509                       # miss rate for ReadReq accesses
system.cpu.dcache.ReadReq_miss_rate::total     0.002509                       # miss rate for ReadReq accesses
system.cpu.dcache.ReadReq_avg_miss_latency::.cpu.data 70986.215539                       # average ReadReq miss latency
system.cpu.dcache.ReadReq_avg_miss_latency::total 70986.215539                       # average ReadReq miss latency
system.cpu.dcache.ReadReq_mshr_hits::.cpu.data          253                       # number of ReadReq MSHR hits
system.cpu.dcache.ReadReq_mshr_hits::total          253                       # number of ReadReq MSHR hits
system.cpu.dcache.ReadReq_mshr_misses::.cpu.data          146                       # number of ReadReq MSHR misses
system.cpu.dcache.ReadReq_mshr_misses::total          146                       # number of ReadReq MSHR misses
system.cpu.dcache.ReadReq_mshr_miss_latency::.cpu.data     12112500                       # number of ReadReq MSHR miss cycles
system.cpu.dcache.ReadReq_mshr_miss_latency::total     12112500                       # number of ReadReq MSHR miss cycles
system.cpu.dcache.ReadReq_mshr_miss_rate::.cpu.data     0.000918                       # mshr miss rate for ReadReq accesses
system.cpu.dcache.ReadReq_mshr_miss_rate::total     0.000918                       # mshr miss rate for ReadReq accesses
system.cpu.dcache.ReadReq_avg_mshr_miss_latency::.cpu.data 82962.328767                       # average ReadReq mshr miss latency
system.cpu.dcache.ReadReq_avg_mshr_miss_latency::total 82962.328767                       # average ReadReq mshr miss latency
system.cpu.dcache.WriteReq_hits::.cpu.data       100939                       # number of WriteReq hits
system.cpu.dcache.WriteReq_hits::total         100939                       # number of WriteReq hits
system.cpu.dcache.WriteReq_misses::.cpu.data        22025                       # number of WriteReq misses
system.cpu.dcache.WriteReq_misses::total        22025                       # number of WriteReq misses
system.cpu.dcache.WriteReq_miss_latency::.cpu.data   1369532617                       # number of WriteReq miss cycles
system.cpu.dcache.WriteReq_miss_latency::total   1369532617                       # number of WriteReq miss cycles
system.cpu.dcache.WriteReq_accesses::.cpu.data       122964                       # number of WriteReq accesses(hits+misses)
system.cpu.dcache.WriteReq_accesses::total       122964                       # number of WriteReq accesses(hits+misses)
system.cpu.dcache.WriteReq_miss_rate::.cpu.data     0.179117                       # miss rate for WriteReq accesses
system.cpu.dcache.WriteReq_miss_rate::total     0.179117                       # miss rate for WriteReq accesses
system.cpu.dcache.WriteReq_avg_miss_latency::.cpu.data 62180.822565                       # average WriteReq miss latency
system.cpu.dcache.WriteReq_avg_miss_latency::total 62180.822565                       # average WriteReq miss latency
system.cpu.dcache.WriteReq_mshr_hits::.cpu.data        19277                       # number of WriteReq MSHR hits
system.cpu.dcache.WriteReq_mshr_hits::total        19277                       # number of WriteReq MSHR hits
system.cpu.dcache.WriteReq_mshr_misses::.cpu.data         2748                       # number of WriteReq MSHR misses
system.cpu.dcache.WriteReq_mshr_misses::total         2748                       # number of WriteReq MSHR misses
system.cpu.dcache.WriteReq_mshr_miss_latency::.cpu.data    221150984                       # number of WriteReq MSHR miss cycles
system.cpu.dcache.WriteReq_mshr_miss_latency::total    221150984                       # number of WriteReq MSHR miss cycles
system.cpu.dcache.WriteReq_mshr_miss_rate::.cpu.data     0.022348                       # mshr miss rate for WriteReq accesses
system.cpu.dcache.WriteReq_mshr_miss_rate::total     0.022348                       # mshr miss rate for WriteReq accesses
system.cpu.dcache.WriteReq_avg_mshr_miss_latency::.cpu.data 80477.068413                       # average WriteReq mshr miss latency
system.cpu.dcache.WriteReq_avg_mshr_miss_latency::total 80477.068413                       # average WriteReq mshr miss latency
system.cpu.dcache.SoftPFReq_hits::.cpu.data            5                       # number of SoftPFReq hits
system.cpu.dcache.SoftPFReq_hits::total             5                       # number of SoftPFReq hits
system.cpu.dcache.SoftPFReq_misses::.cpu.data            3                       # number of SoftPFReq misses
system.cpu.dcache.SoftPFReq_misses::total            3                       # number of SoftPFReq misses
system.cpu.dcache.SoftPFReq_accesses::.cpu.data            8                       # number of SoftPFReq accesses(hits+misses)
system.cpu.dcache.SoftPFReq_accesses::total            8                       # number of SoftPFReq accesses(hits+misses)
system.cpu.dcache.SoftPFReq_miss_rate::.cpu.data     0.375000                       # miss rate for SoftPFReq accesses
system.cpu.dcache.SoftPFReq_miss_rate::total     0.375000                       # miss rate for SoftPFReq accesses
system.cpu.dcache.SoftPFReq_mshr_misses::.cpu.data            3                       # number of SoftPFReq MSHR misses
system.cpu.dcache.SoftPFReq_mshr_misses::total            3                       # number of SoftPFReq MSHR misses
system.cpu.dcache.SoftPFReq_mshr_miss_latency::.cpu.data       262000                       # number of SoftPFReq MSHR miss cycles
system.cpu.dcache.SoftPFReq_mshr_miss_latency::total       262000                       # number of SoftPFReq MSHR miss cycles
system.cpu.dcache.SoftPFReq_mshr_miss_rate::.cpu.data     0.375000                       # mshr miss rate for SoftPFReq accesses
system.cpu.dcache.SoftPFReq_mshr_miss_rate::total     0.375000                       # mshr miss rate for SoftPFReq accesses
system.cpu.dcache.SoftPFReq_avg_mshr_miss_latency::.cpu.data 87333.333333                       # average SoftPFReq mshr miss latency
system.cpu.dcache.SoftPFReq_avg_mshr_miss_latency::total 87333.333333                       # average SoftPFReq mshr miss latency
system.cpu.dcache.WriteLineReq_misses::.cpu.data      2345927                       # number of WriteLineReq misses
system.cpu.dcache.WriteLineReq_misses::total      2345927                       # number of WriteLineReq misses
system.cpu.dcache.WriteLineReq_miss_latency::.cpu.data  77573627367                       # number of WriteLineReq miss cycles
system.cpu.dcache.WriteLineReq_miss_latency::total  77573627367                       # number of WriteLineReq miss cycles
system.cpu.dcache.WriteLineReq_accesses::.cpu.data      2345927                       # number of WriteLineReq accesses(hits+misses)
system.cpu.dcache.WriteLineReq_accesses::total      2345927                       # number of WriteLineReq accesses(hits+misses)
system.cpu.dcache.WriteLineReq_miss_rate::.cpu.data            1                       # miss rate for WriteLineReq accesses
system.cpu.dcache.WriteLineReq_miss_rate::total            1                       # miss rate for WriteLineReq accesses
system.cpu.dcache.WriteLineReq_avg_miss_latency::.cpu.data 33067.366277                       # average WriteLineReq miss latency
system.cpu.dcache.WriteLineReq_avg_miss_latency::total 33067.366277                       # average WriteLineReq miss latency
system.cpu.dcache.WriteLineReq_mshr_misses::.cpu.data      2345927                       # number of WriteLineReq MSHR misses
system.cpu.dcache.WriteLineReq_mshr_misses::total      2345927                       # number of WriteLineReq MSHR misses
system.cpu.dcache.WriteLineReq_mshr_miss_latency::.cpu.data  75227704367                       # number of WriteLineReq MSHR miss cycles
system.cpu.dcache.WriteLineReq_mshr_miss_latency::total  75227704367                       # number of WriteLineReq MSHR miss cycles
system.cpu.dcache.WriteLineReq_mshr_miss_rate::.cpu.data            1                       # mshr miss rate for WriteLineReq accesses
system.cpu.dcache.WriteLineReq_mshr_miss_rate::total            1                       # mshr miss rate for WriteLineReq accesses
system.cpu.dcache.WriteLineReq_avg_mshr_miss_latency::.cpu.data 32067.367982                       # average WriteLineReq mshr miss latency
system.cpu.dcache.WriteLineReq_avg_mshr_miss_latency::total 32067.367982                       # average WriteLineReq mshr miss latency
system.cpu.dcache.LoadLockedReq_hits::.cpu.data           23                       # number of LoadLockedReq hits
system.cpu.dcache.LoadLockedReq_hits::total           23                       # number of LoadLockedReq hits
system.cpu.dcache.LoadLockedReq_misses::.cpu.data            1                       # number of LoadLockedReq misses
system.cpu.dcache.LoadLockedReq_misses::total            1                       # number of LoadLockedReq misses
system.cpu.dcache.LoadLockedReq_miss_latency::.cpu.data        86500                       # number of LoadLockedReq miss cycles
system.cpu.dcache.LoadLockedReq_miss_latency::total        86500                       # number of LoadLockedReq miss cycles
system.cpu.dcache.LoadLockedReq_accesses::.cpu.data           24                       # number of LoadLockedReq accesses(hits+misses)
system.cpu.dcache.LoadLockedReq_accesses::total           24                       # number of LoadLockedReq accesses(hits+misses)
system.cpu.dcache.LoadLockedReq_miss_rate::.cpu.data     0.041667                       # miss rate for LoadLockedReq accesses
system.cpu.dcache.LoadLockedReq_miss_rate::total     0.041667                       # miss rate for LoadLockedReq accesses
system.cpu.dcache.LoadLockedReq_avg_miss_latency::.cpu.data        86500                       # average LoadLockedReq miss latency
system.cpu.dcache.LoadLockedReq_avg_miss_latency::total        86500                       # average LoadLockedReq miss latency
system.cpu.dcache.LoadLockedReq_mshr_misses::.cpu.data            1                       # number of LoadLockedReq MSHR misses
system.cpu.dcache.LoadLockedReq_mshr_misses::total            1                       # number of LoadLockedReq MSHR misses
system.cpu.dcache.LoadLockedReq_mshr_miss_latency::.cpu.data        85500                       # number of LoadLockedReq MSHR miss cycles
system.cpu.dcache.LoadLockedReq_mshr_miss_latency::total        85500                       # number of LoadLockedReq MSHR miss cycles
system.cpu.dcache.LoadLockedReq_mshr_miss_rate::.cpu.data     0.041667                       # mshr miss rate for LoadLockedReq accesses
system.cpu.dcache.LoadLockedReq_mshr_miss_rate::total     0.041667                       # mshr miss rate for LoadLockedReq accesses
system.cpu.dcache.LoadLockedReq_avg_mshr_miss_latency::.cpu.data        85500                       # average LoadLockedReq mshr miss latency
system.cpu.dcache.LoadLockedReq_avg_mshr_miss_latency::total        85500                       # average LoadLockedReq mshr miss latency
system.cpu.dcache.StoreCondReq_hits::.cpu.data           20                       # number of StoreCondReq hits
system.cpu.dcache.StoreCondReq_hits::total           20                       # number of StoreCondReq hits
system.cpu.dcache.StoreCondReq_accesses::.cpu.data           20                       # number of StoreCondReq accesses(hits+misses)
system.cpu.dcache.StoreCondReq_accesses::total           20                       # number of StoreCondReq accesses(hits+misses)
system.cpu.dcache.power_state.pwrStateResidencyTicks::UNDEFINED  19830801000                       # Cumulative time (in ticks) in various power states
system.cpu.dcache.tags.tagsinuse          1022.155696                       # Cycle average of tags in use
system.cpu.dcache.tags.total_refs             2608441                       # Total number of references to valid blocks.
system.cpu.dcache.tags.sampled_refs           2348821                       # Sample count of references to valid blocks.
system.cpu.dcache.tags.avg_refs              1.110532                       # Average number of references to valid blocks.
system.cpu.dcache.tags.warmup_cycle            268500                       # Cycle when the warmup percentage was hit.
system.cpu.dcache.tags.occ_blocks::.cpu.data  1022.155696                       # Average occupied blocks per requestor
system.cpu.dcache.tags.occ_percent::.cpu.data     0.998199                       # Average percentage of cache occupancy
system.cpu.dcache.tags.occ_percent::total     0.998199                       # Average percentage of cache occupancy
system.cpu.dcache.tags.occ_task_id_blocks::1024         1024                       # Occupied blocks per task id
system.cpu.dcache.tags.age_task_id_blocks_1024::0         1024                       # Occupied blocks per task id
system.cpu.dcache.tags.occ_task_id_percent::1024            1                       # Percentage of cache occupancy per task id
system.cpu.dcache.tags.tag_accesses           7604771                       # Number of tag accesses
system.cpu.dcache.tags.data_accesses          7604771                       # Number of data accesses
system.cpu.dcache.tags.power_state.pwrStateResidencyTicks::UNDEFINED  19830801000                       # Cumulative time (in ticks) in various power states
system.cpu.power_state.pwrStateResidencyTicks::ON  19830801000                       # Cumulative time (in ticks) in various power states

---------- End Simulation Statistics   ----------
