
---------- Begin Simulation Statistics ----------
final_tick                                 3300793500                       # Number of ticks from beginning of simulation (restored from checkpoints and never reset)
host_inst_rate                                 225519                       # Simulator instruction rate (inst/s)
host_mem_usage                                 880940                       # Number of bytes of host memory used
host_op_rate                                   251055                       # Simulator op (including micro ops) rate (op/s)
host_seconds                                    44.34                       # Real time elapsed on the host
host_tick_rate                               74438820                       # Simulator tick rate (ticks/s)
sim_freq                                 1000000000000                       # Frequency of simulated ticks
sim_insts                                    10000002                       # Number of instructions simulated
sim_ops                                      11132386                       # Number of ops (including micro ops) simulated
sim_seconds                                  0.003301                       # Number of seconds simulated
sim_ticks                                  3300793500                       # Number of ticks simulated
system.cpu.branchPred.BTBCorrect                    0                       # Number of correct BTB predictions (this stat may not work properly.
system.cpu.branchPred.BTBHitPct             98.331932                       # BTB Hit Percentage
system.cpu.branchPred.BTBHits                  962824                       # Number of BTB hits
system.cpu.branchPred.BTBLookups               979157                       # Number of BTB lookups
system.cpu.branchPred.RASInCorrect                  0                       # Number of incorrect RAS predictions.
system.cpu.branchPred.condIncorrect             40877                       # Number of conditional branches incorrect
system.cpu.branchPred.condPredicted           1494144                       # Number of conditional branches predicted
system.cpu.branchPred.indirectHits              34267                       # Number of indirect target hits.
system.cpu.branchPred.indirectLookups           34493                       # Number of indirect predictor lookups.
system.cpu.branchPred.indirectMisses              226                       # Number of indirect misses.
system.cpu.branchPred.lookups                 2013569                       # Number of BP lookups
system.cpu.branchPred.usedRAS                  183758                       # Number of times the RAS was used to get a target.
system.cpu.branchPredindirectMispredicted           71                       # Number of mispredicted indirect branches.
system.cpu.cc_regfile_reads                   3509757                       # number of cc regfile reads
system.cpu.cc_regfile_writes                  3504959                       # number of cc regfile writes
system.cpu.commit.amos                              0                       # Number of atomic instructions committed
system.cpu.commit.branchMispredicts             37763                       # The number of times a branch was mispredicted
system.cpu.commit.branches                    1873361                       # Number of branches committed
system.cpu.commit.bw_lim_events                610851                       # number cycles where commit BW limit reached
system.cpu.commit.commitNonSpecStalls           11441                       # The number of times commit has been forced to stall to communicate backwards
system.cpu.commit.commitSquashedInsts          380552                       # The number of squashed insts skipped by commit
system.cpu.commit.committedInsts             10008567                       # Number of instructions committed
system.cpu.commit.committedOps               11140951                       # Number of ops (including micro ops) committed
system.cpu.commit.committed_per_cycle::samples      6305228                       # Number of insts commited each cycle
system.cpu.commit.committed_per_cycle::mean     1.766939                       # Number of insts commited each cycle
system.cpu.commit.committed_per_cycle::stdev     2.524723                       # Number of insts commited each cycle
system.cpu.commit.committed_per_cycle::underflows            0      0.00%      0.00% # Number of insts commited each cycle
system.cpu.commit.committed_per_cycle::0      2986394     47.36%     47.36% # Number of insts commited each cycle
system.cpu.commit.committed_per_cycle::1      1075392     17.06%     64.42% # Number of insts commited each cycle
system.cpu.commit.committed_per_cycle::2       733517     11.63%     76.05% # Number of insts commited each cycle
system.cpu.commit.committed_per_cycle::3       416079      6.60%     82.65% # Number of insts commited each cycle
system.cpu.commit.committed_per_cycle::4       149056      2.36%     85.02% # Number of insts commited each cycle
system.cpu.commit.committed_per_cycle::5       196944      3.12%     88.14% # Number of insts commited each cycle
system.cpu.commit.committed_per_cycle::6        76429      1.21%     89.35% # Number of insts commited each cycle
system.cpu.commit.committed_per_cycle::7        60566      0.96%     90.31% # Number of insts commited each cycle
system.cpu.commit.committed_per_cycle::8       610851      9.69%    100.00% # Number of insts commited each cycle
system.cpu.commit.committed_per_cycle::overflows            0      0.00%    100.00% # Number of insts commited each cycle
system.cpu.commit.committed_per_cycle::min_value            0                       # Number of insts commited each cycle
system.cpu.commit.committed_per_cycle::max_value            8                       # Number of insts commited each cycle
system.cpu.commit.committed_per_cycle::total      6305228                       # Number of insts commited each cycle
system.cpu.commit.fp_insts                          0                       # Number of committed floating point instructions.
system.cpu.commit.function_calls               183162                       # Number of function calls committed.
system.cpu.commit.int_insts                   9941907                       # Number of committed integer instructions.
system.cpu.commit.loads                       1623294                       # Number of loads committed
system.cpu.commit.membars                       11427                       # Number of memory barriers committed
system.cpu.commit.op_class_0::No_OpClass        11428      0.10%      0.10% # Class of committed instruction
system.cpu.commit.op_class_0::IntAlu          7562941     67.88%     67.99% # Class of committed instruction
system.cpu.commit.op_class_0::IntMult          227263      2.04%     70.03% # Class of committed instruction
system.cpu.commit.op_class_0::IntDiv                4      0.00%     70.03% # Class of committed instruction
system.cpu.commit.op_class_0::FloatAdd              0      0.00%     70.03% # Class of committed instruction
system.cpu.commit.op_class_0::FloatCmp          11420      0.10%     70.13% # Class of committed instruction
system.cpu.commit.op_class_0::FloatCvt           5710      0.05%     70.18% # Class of committed instruction
system.cpu.commit.op_class_0::FloatMult             0      0.00%     70.18% # Class of committed instruction
system.cpu.commit.op_class_0::FloatMultAcc            0      0.00%     70.18% # Class of committed instruction
system.cpu.commit.op_class_0::FloatDiv           5710      0.05%     70.23% # Class of committed instruction
system.cpu.commit.op_class_0::FloatMisc         22840      0.21%     70.44% # Class of committed instruction
system.cpu.commit.op_class_0::FloatSqrt             0      0.00%     70.44% # Class of committed instruction
system.cpu.commit.op_class_0::SimdAdd           22868      0.21%     70.64% # Class of committed instruction
system.cpu.commit.op_class_0::SimdAddAcc            0      0.00%     70.64% # Class of committed instruction
system.cpu.commit.op_class_0::SimdAlu           45709      0.41%     71.05% # Class of committed instruction
system.cpu.commit.op_class_0::SimdCmp           45712      0.41%     71.46% # Class of committed instruction
system.cpu.commit.op_class_0::SimdCvt               0      0.00%     71.46% # Class of committed instruction
system.cpu.commit.op_class_0::SimdMisc          34285      0.31%     71.77% # Class of committed instruction
system.cpu.commit.op_class_0::SimdMult              0      0.00%     71.77% # Class of committed instruction
system.cpu.commit.op_class_0::SimdMultAcc            0      0.00%     71.77% # Class of committed instruction
system.cpu.commit.op_class_0::SimdShift             0      0.00%     71.77% # Class of committed instruction
system.cpu.commit.op_class_0::SimdShiftAcc            0      0.00%     71.77% # Class of committed instruction
system.cpu.commit.op_class_0::SimdDiv               0      0.00%     71.77% # Class of committed instruction
system.cpu.commit.op_class_0::SimdSqrt              0      0.00%     71.77% # Class of committed instruction
system.cpu.commit.op_class_0::SimdFloatAdd            0      0.00%     71.77% # Class of committed instruction
system.cpu.commit.op_class_0::SimdFloatAlu            0      0.00%     71.77% # Class of committed instruction
system.cpu.commit.op_class_0::SimdFloatCmp            0      0.00%     71.77% # Class of committed instruction
system.cpu.commit.op_class_0::SimdFloatCvt            0      0.00%     71.77% # Class of committed instruction
system.cpu.commit.op_class_0::SimdFloatDiv            0      0.00%     71.77% # Class of committed instruction
system.cpu.commit.op_class_0::SimdFloatMisc            0      0.00%     71.77% # Class of committed instruction
system.cpu.commit.op_class_0::SimdFloatMult            0      0.00%     71.77% # Class of committed instruction
system.cpu.commit.op_class_0::SimdFloatMultAcc            0      0.00%     71.77% # Class of committed instruction
system.cpu.commit.op_class_0::SimdFloatSqrt            0      0.00%     71.77% # Class of committed instruction
system.cpu.commit.op_class_0::SimdReduceAdd            0      0.00%     71.77% # Class of committed instruction
system.cpu.commit.op_class_0::SimdReduceAlu            0      0.00%     71.77% # Class of committed instruction
system.cpu.commit.op_class_0::SimdReduceCmp            0      0.00%     71.77% # Class of committed instruction
system.cpu.commit.op_class_0::SimdFloatReduceAdd            0      0.00%     71.77% # Class of committed instruction
system.cpu.commit.op_class_0::SimdFloatReduceCmp            0      0.00%     71.77% # Class of committed instruction
system.cpu.commit.op_class_0::SimdAes               0      0.00%     71.77% # Class of committed instruction
system.cpu.commit.op_class_0::SimdAesMix            0      0.00%     71.77% # Class of committed instruction
system.cpu.commit.op_class_0::SimdSha1Hash            0      0.00%     71.77% # Class of committed instruction
system.cpu.commit.op_class_0::SimdSha1Hash2            0      0.00%     71.77% # Class of committed instruction
system.cpu.commit.op_class_0::SimdSha256Hash            0      0.00%     71.77% # Class of committed instruction
system.cpu.commit.op_class_0::SimdSha256Hash2            0      0.00%     71.77% # Class of committed instruction
system.cpu.commit.op_class_0::SimdShaSigma2            0      0.00%     71.77% # Class of committed instruction
system.cpu.commit.op_class_0::SimdShaSigma3            0      0.00%     71.77% # Class of committed instruction
system.cpu.commit.op_class_0::SimdPredAlu            0      0.00%     71.77% # Class of committed instruction
system.cpu.commit.op_class_0::MemRead         1623294     14.57%     86.34% # Class of committed instruction
system.cpu.commit.op_class_0::MemWrite        1521767     13.66%    100.00% # Class of committed instruction
system.cpu.commit.op_class_0::FloatMemRead            0      0.00%    100.00% # Class of committed instruction
system.cpu.commit.op_class_0::FloatMemWrite            0      0.00%    100.00% # Class of committed instruction
system.cpu.commit.op_class_0::IprAccess             0      0.00%    100.00% # Class of committed instruction
system.cpu.commit.op_class_0::InstPrefetch            0      0.00%    100.00% # Class of committed instruction
system.cpu.commit.op_class_0::total          11140951                       # Class of committed instruction
system.cpu.commit.refs                        3145061                       # Number of memory references committed
system.cpu.commit.swp_count                         0                       # Number of s/w prefetches committed
system.cpu.commit.vec_insts                    337102                       # Number of committed Vector instructions.
system.cpu.committedInsts                    10000002                       # Number of Instructions Simulated
system.cpu.committedOps                      11132386                       # Number of Ops (including micro ops) Simulated
system.cpu.cpi                               0.660159                       # CPI: Cycles Per Instruction
system.cpu.cpi_total                         0.660159                       # CPI: Total CPI of All Threads
system.cpu.decode.BlockedCycles                730446                       # Number of cycles decode is blocked
system.cpu.decode.BranchMispred                  3119                       # Number of times decode detected a branch misprediction
system.cpu.decode.BranchResolved               954661                       # Number of times decode resolved a branch
system.cpu.decode.DecodedInsts               11779666                       # Number of instructions handled by decode
system.cpu.decode.IdleCycles                  3299396                       # Number of cycles decode is idle
system.cpu.decode.RunCycles                   2238880                       # Number of cycles decode is running
system.cpu.decode.SquashCycles                  37856                       # Number of cycles decode is squashing
system.cpu.decode.SquashedInsts                   874                       # Number of squashed instructions handled by decode
system.cpu.decode.UnblockCycles                 65229                       # Number of cycles decode is unblocking
system.cpu.dtb.accesses                             0                       # DTB accesses
system.cpu.dtb.align_faults                         0                       # Number of TLB faults due to alignment restrictions
system.cpu.dtb.domain_faults                        0                       # Number of TLB faults due to domain restrictions
system.cpu.dtb.flush_entries                        0                       # Number of entries that have been flushed from TLB
system.cpu.dtb.flush_tlb                            0                       # Number of times complete TLB was flushed
system.cpu.dtb.flush_tlb_asid                       0                       # Number of times TLB was flushed by ASID
system.cpu.dtb.flush_tlb_mva                        0                       # Number of times TLB was flushed by MVA
system.cpu.dtb.flush_tlb_mva_asid                   0                       # Number of times TLB was flushed by MVA & ASID
system.cpu.dtb.hits                                 0                       # DTB hits
system.cpu.dtb.inst_accesses                        0                       # ITB inst accesses
system.cpu.dtb.inst_hits                            0                       # ITB inst hits
system.cpu.dtb.inst_misses                          0                       # ITB inst misses
system.cpu.dtb.misses                               0                       # DTB misses
system.cpu.dtb.perms_faults                         0                       # Number of TLB faults due to permissions restrictions
system.cpu.dtb.prefetch_faults                      0                       # Number of TLB faults due to prefetch
system.cpu.dtb.read_accesses                        0                       # DTB read accesses
system.cpu.dtb.read_hits                            0                       # DTB read hits
system.cpu.dtb.read_misses                          0                       # DTB read misses
system.cpu.dtb.stage2_mmu.stage2_tlb.accesses            0                       # DTB accesses
system.cpu.dtb.stage2_mmu.stage2_tlb.align_faults            0                       # Number of TLB faults due to alignment restrictions
system.cpu.dtb.stage2_mmu.stage2_tlb.domain_faults            0                       # Number of TLB faults due to domain restrictions
system.cpu.dtb.stage2_mmu.stage2_tlb.flush_entries            0                       # Number of entries that have been flushed from TLB
system.cpu.dtb.stage2_mmu.stage2_tlb.flush_tlb            0                       # Number of times complete TLB was flushed
system.cpu.dtb.stage2_mmu.stage2_tlb.flush_tlb_asid            0                       # Number of times TLB was flushed by ASID
system.cpu.dtb.stage2_mmu.stage2_tlb.flush_tlb_mva            0                       # Number of times TLB was flushed by MVA
system.cpu.dtb.stage2_mmu.stage2_tlb.flush_tlb_mva_asid            0                       # Number of times TLB was flushed by MVA & ASID
system.cpu.dtb.stage2_mmu.stage2_tlb.hits            0                       # DTB hits
system.cpu.dtb.stage2_mmu.stage2_tlb.inst_accesses            0                       # ITB inst accesses
system.cpu.dtb.stage2_mmu.stage2_tlb.inst_hits            0                       # ITB inst hits
system.cpu.dtb.stage2_mmu.stage2_tlb.inst_misses            0                       # ITB inst misses
system.cpu.dtb.stage2_mmu.stage2_tlb.misses            0                       # DTB misses
system.cpu.dtb.stage2_mmu.stage2_tlb.perms_faults            0                       # Number of TLB faults due to permissions restrictions
system.cpu.dtb.stage2_mmu.stage2_tlb.prefetch_faults            0                       # Number of TLB faults due to prefetch
system.cpu.dtb.stage2_mmu.stage2_tlb.read_accesses            0                       # DTB read accesses
system.cpu.dtb.stage2_mmu.stage2_tlb.read_hits            0                       # DTB read hits
system.cpu.dtb.stage2_mmu.stage2_tlb.read_misses            0                       # DTB read misses
system.cpu.dtb.stage2_mmu.stage2_tlb.walker.walkRequestOrigin_Requested::Data            0                       # Table walker requests started/completed, data/inst
system.cpu.dtb.stage2_mmu.stage2_tlb.walker.walkRequestOrigin_Requested::Inst            0                       # Table walker requests started/completed, data/inst
system.cpu.dtb.stage2_mmu.stage2_tlb.walker.walkRequestOrigin_Requested::total            0                       # Table walker requests started/completed, data/inst
system.cpu.dtb.stage2_mmu.stage2_tlb.walker.walkRequestOrigin_Completed::Data            0                       # Table walker requests started/completed, data/inst
system.cpu.dtb.stage2_mmu.stage2_tlb.walker.walkRequestOrigin_Completed::Inst            0                       # Table walker requests started/completed, data/inst
system.cpu.dtb.stage2_mmu.stage2_tlb.walker.walkRequestOrigin_Completed::total            0                       # Table walker requests started/completed, data/inst
system.cpu.dtb.stage2_mmu.stage2_tlb.walker.walkRequestOrigin::total            0                       # Table walker requests started/completed, data/inst
system.cpu.dtb.stage2_mmu.stage2_tlb.walker.walks            0                       # Table walker walks requested
system.cpu.dtb.stage2_mmu.stage2_tlb.write_accesses            0                       # DTB write accesses
system.cpu.dtb.stage2_mmu.stage2_tlb.write_hits            0                       # DTB write hits
system.cpu.dtb.stage2_mmu.stage2_tlb.write_misses            0                       # DTB write misses
system.cpu.dtb.walker.walkRequestOrigin_Requested::Data            0                       # Table walker requests started/completed, data/inst
system.cpu.dtb.walker.walkRequestOrigin_Requested::Inst            0                       # Table walker requests started/completed, data/inst
system.cpu.dtb.walker.walkRequestOrigin_Requested::total            0                       # Table walker requests started/completed, data/inst
system.cpu.dtb.walker.walkRequestOrigin_Completed::Data            0                       # Table walker requests started/completed, data/inst
system.cpu.dtb.walker.walkRequestOrigin_Completed::Inst            0                       # Table walker requests started/completed, data/inst
system.cpu.dtb.walker.walkRequestOrigin_Completed::total            0                       # Table walker requests started/completed, data/inst
system.cpu.dtb.walker.walkRequestOrigin::total            0                       # Table walker requests started/completed, data/inst
system.cpu.dtb.walker.walks                         0                       # Table walker walks requested
system.cpu.dtb.write_accesses                       0                       # DTB write accesses
system.cpu.dtb.write_hits                           0                       # DTB write hits
system.cpu.dtb.write_misses                         0                       # DTB write misses
system.cpu.fetch.Branches                     2013569                       # Number of branches that fetch encountered
system.cpu.fetch.CacheLines                   1693222                       # Number of cache lines fetched
system.cpu.fetch.Cycles                       2645812                       # Number of cycles fetch has run and was not squashing or blocked
system.cpu.fetch.IcacheSquashes                 20311                       # Number of outstanding Icache misses that were squashed
system.cpu.fetch.Insts                       10645704                       # Number of instructions fetch has processed
system.cpu.fetch.SquashCycles                   81940                       # Number of cycles fetch has spent squashing
system.cpu.fetch.branchRate                  0.305013                       # Number of branch fetches per cycle
system.cpu.fetch.icacheStallCycles            3685025                       # Number of cycles fetch is stalled on an Icache miss
system.cpu.fetch.predictedBranches            1180849                       # Number of branches that fetch has predicted taken
system.cpu.fetch.rate                        1.612597                       # Number of inst fetches per cycle
system.cpu.fetch.rateDist::samples            6371807                       # Number of instructions fetched each cycle (Total)
system.cpu.fetch.rateDist::mean              1.865429                       # Number of instructions fetched each cycle (Total)
system.cpu.fetch.rateDist::stdev             2.874519                       # Number of instructions fetched each cycle (Total)
system.cpu.fetch.rateDist::underflows               0      0.00%      0.00% # Number of instructions fetched each cycle (Total)
system.cpu.fetch.rateDist::0                  3954837     62.07%     62.07% # Number of instructions fetched each cycle (Total)
system.cpu.fetch.rateDist::1                   383984      6.03%     68.09% # Number of instructions fetched each cycle (Total)
system.cpu.fetch.rateDist::2                   168001      2.64%     70.73% # Number of instructions fetched each cycle (Total)
system.cpu.fetch.rateDist::3                   197717      3.10%     73.83% # Number of instructions fetched each cycle (Total)
system.cpu.fetch.rateDist::4                   458877      7.20%     81.04% # Number of instructions fetched each cycle (Total)
system.cpu.fetch.rateDist::5                   122990      1.93%     82.97% # Number of instructions fetched each cycle (Total)
system.cpu.fetch.rateDist::6                   256970      4.03%     87.00% # Number of instructions fetched each cycle (Total)
system.cpu.fetch.rateDist::7                    46707      0.73%     87.73% # Number of instructions fetched each cycle (Total)
system.cpu.fetch.rateDist::8                   781724     12.27%    100.00% # Number of instructions fetched each cycle (Total)
system.cpu.fetch.rateDist::overflows                0      0.00%    100.00% # Number of instructions fetched each cycle (Total)
system.cpu.fetch.rateDist::min_value                0                       # Number of instructions fetched each cycle (Total)
system.cpu.fetch.rateDist::max_value                8                       # Number of instructions fetched each cycle (Total)
system.cpu.fetch.rateDist::total              6371807                       # Number of instructions fetched each cycle (Total)
system.cpu.idleCycles                          229781                       # Total number of cycles that the CPU has spent unscheduled due to idling
system.cpu.iew.branchMispredicts                37845                       # Number of branch mispredicts detected at execute
system.cpu.iew.exec_branches                  1898589                       # Number of branches executed
system.cpu.iew.exec_nop                          8604                       # number of nop insts executed
system.cpu.iew.exec_rate                     1.722974                       # Inst execution rate
system.cpu.iew.exec_refs                      3253119                       # number of memory reference insts executed
system.cpu.iew.exec_stores                    1526845                       # Number of stores executed
system.cpu.iew.exec_swp                             0                       # number of swp insts executed
system.cpu.iew.iewBlockCycles                   29198                       # Number of cycles IEW is blocking
system.cpu.iew.iewDispLoadInsts               1683138                       # Number of dispatched load instructions
system.cpu.iew.iewDispNonSpecInsts              11454                       # Number of dispatched non-speculative instructions
system.cpu.iew.iewDispSquashedInsts             66657                       # Number of squashed instructions skipped by dispatch
system.cpu.iew.iewDispStoreInsts              1566392                       # Number of dispatched store instructions
system.cpu.iew.iewDispatchedInsts            11521524                       # Number of instructions dispatched to IQ
system.cpu.iew.iewExecLoadInsts               1726274                       # Number of load instructions executed
system.cpu.iew.iewExecSquashedInsts             43133                       # Number of squashed instructions skipped in execute
system.cpu.iew.iewExecutedInsts              11374363                       # Number of executed instructions
system.cpu.iew.iewIQFullEvents                      6                       # Number of times the IQ has become full, causing a stall
system.cpu.iew.iewIdleCycles                        0                       # Number of cycles IEW is idle
system.cpu.iew.iewLSQFullEvents                 35158                       # Number of times the LSQ has become full, causing a stall
system.cpu.iew.iewSquashCycles                  37856                       # Number of cycles IEW is squashing
system.cpu.iew.iewUnblockCycles                 35166                       # Number of cycles IEW is unblocking
system.cpu.iew.lsq.thread0.blockedLoads             0                       # Number of blocked loads due to partial load-store forwarding
system.cpu.iew.lsq.thread0.cacheBlocked             0                       # Number of times an access to memory failed due to the cache being blocked
system.cpu.iew.lsq.thread0.forwLoads           102097                       # Number of loads that had data forwarded from stores
system.cpu.iew.lsq.thread0.ignoredResponses           10                       # Number of memory responses ignored because the instruction is squashed
system.cpu.iew.lsq.thread0.invAddrLoads             0                       # Number of loads ignored due to an invalid address
system.cpu.iew.lsq.thread0.invAddrSwpfs             0                       # Number of software prefetches ignored due to an invalid address
system.cpu.iew.lsq.thread0.memOrderViolation           83                       # Number of memory ordering violations
system.cpu.iew.lsq.thread0.rescheduledLoads        67862                       # Number of loads that were rescheduled
system.cpu.iew.lsq.thread0.squashedLoads        59844                       # Number of loads squashed
system.cpu.iew.lsq.thread0.squashedStores        44621                       # Number of stores squashed
system.cpu.iew.memOrderViolationEvents             83                       # Number of memory order violations
system.cpu.iew.predictedNotTakenIncorrect        27915                       # Number of branches that were predicted not taken incorrectly
system.cpu.iew.predictedTakenIncorrect           9930                       # Number of branches that were predicted taken incorrectly
system.cpu.iew.wb_consumers                  10714149                       # num instructions consuming a value
system.cpu.iew.wb_count                      11287903                       # cumulative count of insts written-back
system.cpu.iew.wb_fanout                     0.557065                       # average fanout of values written-back
system.cpu.iew.wb_producers                   5968478                       # num instructions producing a value
system.cpu.iew.wb_rate                       1.709877                       # insts written-back per cycle
system.cpu.iew.wb_sent                       11288944                       # cumulative count of insts sent to commit
system.cpu.int_regfile_reads                 13781662                       # number of integer regfile reads
system.cpu.int_regfile_writes                 8117080                       # number of integer regfile writes
system.cpu.ipc                               1.514787                       # IPC: Instructions Per Cycle
system.cpu.ipc_total                         1.514787                       # IPC: Total IPC of All Threads
system.cpu.iq.FU_type_0::No_OpClass             11433      0.10%      0.10% # Type of FU issued
system.cpu.iq.FU_type_0::IntAlu               7713688     67.56%     67.66% # Type of FU issued
system.cpu.iq.FU_type_0::IntMult               227264      1.99%     69.65% # Type of FU issued
system.cpu.iq.FU_type_0::IntDiv                     4      0.00%     69.65% # Type of FU issued
system.cpu.iq.FU_type_0::FloatAdd                   0      0.00%     69.65% # Type of FU issued
system.cpu.iq.FU_type_0::FloatCmp               11420      0.10%     69.75% # Type of FU issued
system.cpu.iq.FU_type_0::FloatCvt                5710      0.05%     69.80% # Type of FU issued
system.cpu.iq.FU_type_0::FloatMult                  0      0.00%     69.80% # Type of FU issued
system.cpu.iq.FU_type_0::FloatMultAcc               0      0.00%     69.80% # Type of FU issued
system.cpu.iq.FU_type_0::FloatDiv                5710      0.05%     69.85% # Type of FU issued
system.cpu.iq.FU_type_0::FloatMisc              22841      0.20%     70.05% # Type of FU issued
system.cpu.iq.FU_type_0::FloatSqrt                  0      0.00%     70.05% # Type of FU issued
system.cpu.iq.FU_type_0::SimdAdd                22876      0.20%     70.25% # Type of FU issued
system.cpu.iq.FU_type_0::SimdAddAcc                 0      0.00%     70.25% # Type of FU issued
system.cpu.iq.FU_type_0::SimdAlu                45717      0.40%     70.65% # Type of FU issued
system.cpu.iq.FU_type_0::SimdCmp                45720      0.40%     71.05% # Type of FU issued
system.cpu.iq.FU_type_0::SimdCvt                    0      0.00%     71.05% # Type of FU issued
system.cpu.iq.FU_type_0::SimdMisc               36263      0.32%     71.37% # Type of FU issued
system.cpu.iq.FU_type_0::SimdMult                   0      0.00%     71.37% # Type of FU issued
system.cpu.iq.FU_type_0::SimdMultAcc                0      0.00%     71.37% # Type of FU issued
system.cpu.iq.FU_type_0::SimdShift                  0      0.00%     71.37% # Type of FU issued
system.cpu.iq.FU_type_0::SimdShiftAcc               0      0.00%     71.37% # Type of FU issued
system.cpu.iq.FU_type_0::SimdDiv                    0      0.00%     71.37% # Type of FU issued
system.cpu.iq.FU_type_0::SimdSqrt                   0      0.00%     71.37% # Type of FU issued
system.cpu.iq.FU_type_0::SimdFloatAdd               0      0.00%     71.37% # Type of FU issued
system.cpu.iq.FU_type_0::SimdFloatAlu               0      0.00%     71.37% # Type of FU issued
system.cpu.iq.FU_type_0::SimdFloatCmp               0      0.00%     71.37% # Type of FU issued
system.cpu.iq.FU_type_0::SimdFloatCvt               0      0.00%     71.37% # Type of FU issued
system.cpu.iq.FU_type_0::SimdFloatDiv               0      0.00%     71.37% # Type of FU issued
system.cpu.iq.FU_type_0::SimdFloatMisc              0      0.00%     71.37% # Type of FU issued
system.cpu.iq.FU_type_0::SimdFloatMult              0      0.00%     71.37% # Type of FU issued
system.cpu.iq.FU_type_0::SimdFloatMultAcc            0      0.00%     71.37% # Type of FU issued
system.cpu.iq.FU_type_0::SimdFloatSqrt              0      0.00%     71.37% # Type of FU issued
system.cpu.iq.FU_type_0::SimdReduceAdd              0      0.00%     71.37% # Type of FU issued
system.cpu.iq.FU_type_0::SimdReduceAlu              0      0.00%     71.37% # Type of FU issued
system.cpu.iq.FU_type_0::SimdReduceCmp              0      0.00%     71.37% # Type of FU issued
system.cpu.iq.FU_type_0::SimdFloatReduceAdd            0      0.00%     71.37% # Type of FU issued
system.cpu.iq.FU_type_0::SimdFloatReduceCmp            0      0.00%     71.37% # Type of FU issued
system.cpu.iq.FU_type_0::SimdAes                    0      0.00%     71.37% # Type of FU issued
system.cpu.iq.FU_type_0::SimdAesMix                 0      0.00%     71.37% # Type of FU issued
system.cpu.iq.FU_type_0::SimdSha1Hash               0      0.00%     71.37% # Type of FU issued
system.cpu.iq.FU_type_0::SimdSha1Hash2              0      0.00%     71.37% # Type of FU issued
system.cpu.iq.FU_type_0::SimdSha256Hash             0      0.00%     71.37% # Type of FU issued
system.cpu.iq.FU_type_0::SimdSha256Hash2            0      0.00%     71.37% # Type of FU issued
system.cpu.iq.FU_type_0::SimdShaSigma2              0      0.00%     71.37% # Type of FU issued
system.cpu.iq.FU_type_0::SimdShaSigma3              0      0.00%     71.37% # Type of FU issued
system.cpu.iq.FU_type_0::SimdPredAlu                0      0.00%     71.37% # Type of FU issued
system.cpu.iq.FU_type_0::MemRead              1736061     15.21%     86.58% # Type of FU issued
system.cpu.iq.FU_type_0::MemWrite             1532793     13.42%    100.00% # Type of FU issued
system.cpu.iq.FU_type_0::FloatMemRead               0      0.00%    100.00% # Type of FU issued
system.cpu.iq.FU_type_0::FloatMemWrite              0      0.00%    100.00% # Type of FU issued
system.cpu.iq.FU_type_0::IprAccess                  0      0.00%    100.00% # Type of FU issued
system.cpu.iq.FU_type_0::InstPrefetch               0      0.00%    100.00% # Type of FU issued
system.cpu.iq.FU_type_0::total               11417500                       # Type of FU issued
system.cpu.iq.fp_alu_accesses                       0                       # Number of floating point alu accesses
system.cpu.iq.fp_inst_queue_reads                   0                       # Number of floating instruction queue reads
system.cpu.iq.fp_inst_queue_wakeup_accesses            0                       # Number of floating instruction queue wakeup accesses
system.cpu.iq.fp_inst_queue_writes                  0                       # Number of floating instruction queue writes
system.cpu.iq.fu_busy_cnt                      201916                       # FU busy when requested
system.cpu.iq.fu_busy_rate                   0.017685                       # FU busy rate (busy events/executed inst)
system.cpu.iq.fu_full::No_OpClass                   0      0.00%      0.00% # attempts to use FU when none available
system.cpu.iq.fu_full::IntAlu                   19013      9.42%      9.42% # attempts to use FU when none available
system.cpu.iq.fu_full::IntMult                  51099     25.31%     34.72% # attempts to use FU when none available
system.cpu.iq.fu_full::IntDiv                       0      0.00%     34.72% # attempts to use FU when none available
system.cpu.iq.fu_full::FloatAdd                     0      0.00%     34.72% # attempts to use FU when none available
system.cpu.iq.fu_full::FloatCmp                     0      0.00%     34.72% # attempts to use FU when none available
system.cpu.iq.fu_full::FloatCvt                     0      0.00%     34.72% # attempts to use FU when none available
system.cpu.iq.fu_full::FloatMult                    0      0.00%     34.72% # attempts to use FU when none available
system.cpu.iq.fu_full::FloatMultAcc                 0      0.00%     34.72% # attempts to use FU when none available
system.cpu.iq.fu_full::FloatDiv                     0      0.00%     34.72% # attempts to use FU when none available
system.cpu.iq.fu_full::FloatMisc                    0      0.00%     34.72% # attempts to use FU when none available
system.cpu.iq.fu_full::FloatSqrt                    0      0.00%     34.72% # attempts to use FU when none available
system.cpu.iq.fu_full::SimdAdd                      0      0.00%     34.72% # attempts to use FU when none available
system.cpu.iq.fu_full::SimdAddAcc                   0      0.00%     34.72% # attempts to use FU when none available
system.cpu.iq.fu_full::SimdAlu                      1      0.00%     34.72% # attempts to use FU when none available
system.cpu.iq.fu_full::SimdCmp                      2      0.00%     34.72% # attempts to use FU when none available
system.cpu.iq.fu_full::SimdCvt                      0      0.00%     34.72% # attempts to use FU when none available
system.cpu.iq.fu_full::SimdMisc                     0      0.00%     34.72% # attempts to use FU when none available
system.cpu.iq.fu_full::SimdMult                     0      0.00%     34.72% # attempts to use FU when none available
system.cpu.iq.fu_full::SimdMultAcc                  0      0.00%     34.72% # attempts to use FU when none available
system.cpu.iq.fu_full::SimdShift                    0      0.00%     34.72% # attempts to use FU when none available
system.cpu.iq.fu_full::SimdShiftAcc                 0      0.00%     34.72% # attempts to use FU when none available
system.cpu.iq.fu_full::SimdDiv                      0      0.00%     34.72% # attempts to use FU when none available
system.cpu.iq.fu_full::SimdSqrt                     0      0.00%     34.72% # attempts to use FU when none available
system.cpu.iq.fu_full::SimdFloatAdd                 0      0.00%     34.72% # attempts to use FU when none available
system.cpu.iq.fu_full::SimdFloatAlu                 0      0.00%     34.72% # attempts to use FU when none available
system.cpu.iq.fu_full::SimdFloatCmp                 0      0.00%     34.72% # attempts to use FU when none available
system.cpu.iq.fu_full::SimdFloatCvt                 0      0.00%     34.72% # attempts to use FU when none available
system.cpu.iq.fu_full::SimdFloatDiv                 0      0.00%     34.72% # attempts to use FU when none available
system.cpu.iq.fu_full::SimdFloatMisc                0      0.00%     34.72% # attempts to use FU when none available
system.cpu.iq.fu_full::SimdFloatMult                0      0.00%     34.72% # attempts to use FU when none available
system.cpu.iq.fu_full::SimdFloatMultAcc             0      0.00%     34.72% # attempts to use FU when none available
system.cpu.iq.fu_full::SimdFloatSqrt                0      0.00%     34.72% # attempts to use FU when none available
system.cpu.iq.fu_full::SimdReduceAdd                0      0.00%     34.72% # attempts to use FU when none available
system.cpu.iq.fu_full::SimdReduceAlu                0      0.00%     34.72% # attempts to use FU when none available
system.cpu.iq.fu_full::SimdReduceCmp                0      0.00%     34.72% # attempts to use FU when none available
system.cpu.iq.fu_full::SimdFloatReduceAdd            0      0.00%     34.72% # attempts to use FU when none available
system.cpu.iq.fu_full::SimdFloatReduceCmp            0      0.00%     34.72% # attempts to use FU when none available
system.cpu.iq.fu_full::SimdAes                      0      0.00%     34.72% # attempts to use FU when none available
system.cpu.iq.fu_full::SimdAesMix                   0      0.00%     34.72% # attempts to use FU when none available
system.cpu.iq.fu_full::SimdSha1Hash                 0      0.00%     34.72% # attempts to use FU when none available
system.cpu.iq.fu_full::SimdSha1Hash2                0      0.00%     34.72% # attempts to use FU when none available
system.cpu.iq.fu_full::SimdSha256Hash               0      0.00%     34.72% # attempts to use FU when none available
system.cpu.iq.fu_full::SimdSha256Hash2              0      0.00%     34.72% # attempts to use FU when none available
system.cpu.iq.fu_full::SimdShaSigma2                0      0.00%     34.72% # attempts to use FU when none available
system.cpu.iq.fu_full::SimdShaSigma3                0      0.00%     34.72% # attempts to use FU when none available
system.cpu.iq.fu_full::SimdPredAlu                  0      0.00%     34.72% # attempts to use FU when none available
system.cpu.iq.fu_full::MemRead                  65390     32.38%     67.11% # attempts to use FU when none available
system.cpu.iq.fu_full::MemWrite                 66411     32.89%    100.00% # attempts to use FU when none available
system.cpu.iq.fu_full::FloatMemRead                 0      0.00%    100.00% # attempts to use FU when none available
system.cpu.iq.fu_full::FloatMemWrite                0      0.00%    100.00% # attempts to use FU when none available
system.cpu.iq.fu_full::IprAccess                    0      0.00%    100.00% # attempts to use FU when none available
system.cpu.iq.fu_full::InstPrefetch                 0      0.00%    100.00% # attempts to use FU when none available
system.cpu.iq.int_alu_accesses               11262391                       # Number of integer alu accesses
system.cpu.iq.int_inst_queue_reads           28712597                       # Number of integer instruction queue reads
system.cpu.iq.int_inst_queue_wakeup_accesses     10950740                       # Number of integer instruction queue wakeup accesses
system.cpu.iq.int_inst_queue_writes          11544238                       # Number of integer instruction queue writes
system.cpu.iq.iqInstsAdded                   11501466                       # Number of instructions added to the IQ (excludes non-spec)
system.cpu.iq.iqInstsIssued                  11417500                       # Number of instructions issued
system.cpu.iq.iqNonSpecInstsAdded               11454                       # Number of non-speculative instructions added to the IQ
system.cpu.iq.iqSquashedInstsExamined          380513                       # Number of squashed instructions iterated over during squash; mainly for profiling
system.cpu.iq.iqSquashedInstsIssued                79                       # Number of squashed instructions issued
system.cpu.iq.iqSquashedNonSpecRemoved             13                       # Number of squashed non-spec instructions that were removed
system.cpu.iq.iqSquashedOperandsExamined       377411                       # Number of squashed operands that are examined and possibly removed from graph
system.cpu.iq.issued_per_cycle::samples       6371807                       # Number of insts issued each cycle
system.cpu.iq.issued_per_cycle::mean         1.791878                       # Number of insts issued each cycle
system.cpu.iq.issued_per_cycle::stdev        2.019291                       # Number of insts issued each cycle
system.cpu.iq.issued_per_cycle::underflows            0      0.00%      0.00% # Number of insts issued each cycle
system.cpu.iq.issued_per_cycle::0             2595894     40.74%     40.74% # Number of insts issued each cycle
system.cpu.iq.issued_per_cycle::1              882723     13.85%     54.59% # Number of insts issued each cycle
system.cpu.iq.issued_per_cycle::2              825427     12.95%     67.55% # Number of insts issued each cycle
system.cpu.iq.issued_per_cycle::3              806942     12.66%     80.21% # Number of insts issued each cycle
system.cpu.iq.issued_per_cycle::4              538167      8.45%     88.66% # Number of insts issued each cycle
system.cpu.iq.issued_per_cycle::5              277682      4.36%     93.02% # Number of insts issued each cycle
system.cpu.iq.issued_per_cycle::6              264280      4.15%     97.16% # Number of insts issued each cycle
system.cpu.iq.issued_per_cycle::7              109197      1.71%     98.88% # Number of insts issued each cycle
system.cpu.iq.issued_per_cycle::8               71495      1.12%    100.00% # Number of insts issued each cycle
system.cpu.iq.issued_per_cycle::overflows            0      0.00%    100.00% # Number of insts issued each cycle
system.cpu.iq.issued_per_cycle::min_value            0                       # Number of insts issued each cycle
system.cpu.iq.issued_per_cycle::max_value            8                       # Number of insts issued each cycle
system.cpu.iq.issued_per_cycle::total         6371807                       # Number of insts issued each cycle
system.cpu.iq.rate                           1.729508                       # Inst issue rate
system.cpu.iq.vec_alu_accesses                 345592                       # Number of vector alu accesses
system.cpu.iq.vec_inst_queue_reads             696201                       # Number of vector instruction queue reads
system.cpu.iq.vec_inst_queue_wakeup_accesses       337163                       # Number of vector instruction queue wakeup accesses
system.cpu.iq.vec_inst_queue_writes            349272                       # Number of vector instruction queue writes
system.cpu.itb.accesses                             0                       # DTB accesses
system.cpu.itb.align_faults                         0                       # Number of TLB faults due to alignment restrictions
system.cpu.itb.domain_faults                        0                       # Number of TLB faults due to domain restrictions
system.cpu.itb.flush_entries                        0                       # Number of entries that have been flushed from TLB
system.cpu.itb.flush_tlb                            0                       # Number of times complete TLB was flushed
system.cpu.itb.flush_tlb_asid                       0                       # Number of times TLB was flushed by ASID
system.cpu.itb.flush_tlb_mva                        0                       # Number of times TLB was flushed by MVA
system.cpu.itb.flush_tlb_mva_asid                   0                       # Number of times TLB was flushed by MVA & ASID
system.cpu.itb.hits                                 0                       # DTB hits
system.cpu.itb.inst_accesses                        0                       # ITB inst accesses
system.cpu.itb.inst_hits                            0                       # ITB inst hits
system.cpu.itb.inst_misses                          0                       # ITB inst misses
system.cpu.itb.misses                               0                       # DTB misses
system.cpu.itb.perms_faults                         0                       # Number of TLB faults due to permissions restrictions
system.cpu.itb.prefetch_faults                      0                       # Number of TLB faults due to prefetch
system.cpu.itb.read_accesses                        0                       # DTB read accesses
system.cpu.itb.read_hits                            0                       # DTB read hits
system.cpu.itb.read_misses                          0                       # DTB read misses
system.cpu.itb.stage2_mmu.stage2_tlb.accesses            0                       # DTB accesses
system.cpu.itb.stage2_mmu.stage2_tlb.align_faults            0                       # Number of TLB faults due to alignment restrictions
system.cpu.itb.stage2_mmu.stage2_tlb.domain_faults            0                       # Number of TLB faults due to domain restrictions
system.cpu.itb.stage2_mmu.stage2_tlb.flush_entries            0                       # Number of entries that have been flushed from TLB
system.cpu.itb.stage2_mmu.stage2_tlb.flush_tlb            0                       # Number of times complete TLB was flushed
system.cpu.itb.stage2_mmu.stage2_tlb.flush_tlb_asid            0                       # Number of times TLB was flushed by ASID
system.cpu.itb.stage2_mmu.stage2_tlb.flush_tlb_mva            0                       # Number of times TLB was flushed by MVA
system.cpu.itb.stage2_mmu.stage2_tlb.flush_tlb_mva_asid            0                       # Number of times TLB was flushed by MVA & ASID
system.cpu.itb.stage2_mmu.stage2_tlb.hits            0                       # DTB hits
system.cpu.itb.stage2_mmu.stage2_tlb.inst_accesses            0                       # ITB inst accesses
system.cpu.itb.stage2_mmu.stage2_tlb.inst_hits            0                       # ITB inst hits
system.cpu.itb.stage2_mmu.stage2_tlb.inst_misses            0                       # ITB inst misses
system.cpu.itb.stage2_mmu.stage2_tlb.misses            0                       # DTB misses
system.cpu.itb.stage2_mmu.stage2_tlb.perms_faults            0                       # Number of TLB faults due to permissions restrictions
system.cpu.itb.stage2_mmu.stage2_tlb.prefetch_faults            0                       # Number of TLB faults due to prefetch
system.cpu.itb.stage2_mmu.stage2_tlb.read_accesses            0                       # DTB read accesses
system.cpu.itb.stage2_mmu.stage2_tlb.read_hits            0                       # DTB read hits
system.cpu.itb.stage2_mmu.stage2_tlb.read_misses            0                       # DTB read misses
system.cpu.itb.stage2_mmu.stage2_tlb.walker.walkRequestOrigin_Requested::Data            0                       # Table walker requests started/completed, data/inst
system.cpu.itb.stage2_mmu.stage2_tlb.walker.walkRequestOrigin_Requested::Inst            0                       # Table walker requests started/completed, data/inst
system.cpu.itb.stage2_mmu.stage2_tlb.walker.walkRequestOrigin_Requested::total            0                       # Table walker requests started/completed, data/inst
system.cpu.itb.stage2_mmu.stage2_tlb.walker.walkRequestOrigin_Completed::Data            0                       # Table walker requests started/completed, data/inst
system.cpu.itb.stage2_mmu.stage2_tlb.walker.walkRequestOrigin_Completed::Inst            0                       # Table walker requests started/completed, data/inst
system.cpu.itb.stage2_mmu.stage2_tlb.walker.walkRequestOrigin_Completed::total            0                       # Table walker requests started/completed, data/inst
system.cpu.itb.stage2_mmu.stage2_tlb.walker.walkRequestOrigin::total            0                       # Table walker requests started/completed, data/inst
system.cpu.itb.stage2_mmu.stage2_tlb.walker.walks            0                       # Table walker walks requested
system.cpu.itb.stage2_mmu.stage2_tlb.write_accesses            0                       # DTB write accesses
system.cpu.itb.stage2_mmu.stage2_tlb.write_hits            0                       # DTB write hits
system.cpu.itb.stage2_mmu.stage2_tlb.write_misses            0                       # DTB write misses
system.cpu.itb.walker.walkRequestOrigin_Requested::Data            0                       # Table walker requests started/completed, data/inst
system.cpu.itb.walker.walkRequestOrigin_Requested::Inst            0                       # Table walker requests started/completed, data/inst
system.cpu.itb.walker.walkRequestOrigin_Requested::total            0                       # Table walker requests started/completed, data/inst
system.cpu.itb.walker.walkRequestOrigin_Completed::Data            0                       # Table walker requests started/completed, data/inst
system.cpu.itb.walker.walkRequestOrigin_Completed::Inst            0                       # Table walker requests started/completed, data/inst
system.cpu.itb.walker.walkRequestOrigin_Completed::total            0                       # Table walker requests started/completed, data/inst
system.cpu.itb.walker.walkRequestOrigin::total            0                       # Table walker requests started/completed, data/inst
system.cpu.itb.walker.walks                         0                       # Table walker walks requested
system.cpu.itb.write_accesses                       0                       # DTB write accesses
system.cpu.itb.write_hits                           0                       # DTB write hits
system.cpu.itb.write_misses                         0                       # DTB write misses
system.cpu.memDep0.conflictingLoads             83562                       # Number of conflicting loads.
system.cpu.memDep0.conflictingStores            57835                       # Number of conflicting stores.
system.cpu.memDep0.insertedLoads              1683138                       # Number of loads inserted to the mem dependence unit.
system.cpu.memDep0.insertedStores             1566392                       # Number of stores inserted to the mem dependence unit.
system.cpu.misc_regfile_reads                 8146099                       # number of misc regfile reads
system.cpu.misc_regfile_writes                  74259                       # number of misc regfile writes
system.cpu.numCycles                          6601588                       # number of cpu cycles simulated
system.cpu.numWorkItemsCompleted                    0                       # number of work items this cpu completed
system.cpu.numWorkItemsStarted                      0                       # number of work items this cpu started
system.cpu.rename.BlockCycles                   64379                       # Number of cycles rename is blocking
system.cpu.rename.CommittedMaps              11692981                       # Number of HB maps that are committed
system.cpu.rename.IQFullEvents                   3139                       # Number of times rename has blocked due to IQ full
system.cpu.rename.IdleCycles                  3337185                       # Number of cycles rename is idle
system.cpu.rename.RenameLookups              19121250                       # Number of register rename lookups that rename has made
system.cpu.rename.RenamedInsts               11692993                       # Number of instructions processed by rename
system.cpu.rename.RenamedOperands            12339833                       # Number of destination operands rename has renamed
system.cpu.rename.RunCycles                   2266295                       # Number of cycles rename is running
system.cpu.rename.SQFullEvents                 112465                       # Number of times rename has blocked due to SQ full
system.cpu.rename.SquashCycles                  37856                       # Number of cycles rename is squashing
system.cpu.rename.UnblockCycles                167775                       # Number of cycles rename is unblocking
system.cpu.rename.UndoneMaps                   646822                       # Number of HB maps that are undone due to squashing
system.cpu.rename.int_rename_lookups         14121459                       # Number of integer rename lookups
system.cpu.rename.serializeStallCycles         498317                       # count of cycles rename stalled for serializing inst
system.cpu.rename.serializingInsts              40283                       # count of serializing insts renamed
system.cpu.rename.skidInsts                    347238                       # count of insts added to the skid buffer
system.cpu.rename.tempSerializingInsts          11456                       # count of temporary serializing insts renamed
system.cpu.rename.vec_rename_lookups           435816                       # Number of vector rename lookups
system.cpu.rob.rob_reads                     17215646                       # The number of ROB reads
system.cpu.rob.rob_writes                    23109618                       # The number of ROB writes
system.cpu.timesIdled                           45709                       # Number of times that the entire CPU went into an idle state and unscheduled itself
system.cpu.vec_regfile_reads                   394335                       # number of vector regfile reads
system.cpu.vec_regfile_writes                  222878                       # number of vector regfile writes
system.cpu.workload.numSyscalls                    13                       # Number of system calls
system.membus.snoop_filter.hit_multi_requests            0                       # Number of requests hitting in the snoop filter with multiple (>1) holders of the requested data.
system.membus.snoop_filter.hit_multi_snoops            0                       # Number of snoops hitting in the snoop filter with multiple (>1) holders of the requested data.
system.membus.snoop_filter.hit_single_requests            0                       # Number of requests hitting in the snoop filter with a single holder of the requested data.
system.membus.snoop_filter.hit_single_snoops            0                       # Number of snoops hitting in the snoop filter with a single holder of the requested data.
system.membus.snoop_filter.tot_requests           883                       # Total number of requests made to the snoop filter.
system.membus.snoop_filter.tot_snoops               0                       # Total number of snoops made to the snoop filter.
system.tol2bus.snoop_filter.hit_multi_requests            1                       # Number of requests hitting in the snoop filter with multiple (>1) holders of the requested data.
system.tol2bus.snoop_filter.hit_multi_snoops            0                       # Number of snoops hitting in the snoop filter with multiple (>1) holders of the requested data.
system.tol2bus.snoop_filter.hit_single_requests        93341                       # Number of requests hitting in the snoop filter with a single holder of the requested data.
system.tol2bus.snoop_filter.hit_single_snoops            0                       # Number of snoops hitting in the snoop filter with a single holder of the requested data.
system.tol2bus.snoop_filter.tot_requests       187277                       # Total number of requests made to the snoop filter.
system.tol2bus.snoop_filter.tot_snoops              0                       # Total number of snoops made to the snoop filter.
system.membus.trans_dist::ReadResp                643                       # Transaction distribution
system.membus.trans_dist::ReadExReq               232                       # Transaction distribution
system.membus.trans_dist::ReadExResp              232                       # Transaction distribution
system.membus.trans_dist::ReadSharedReq           643                       # Transaction distribution
system.membus.trans_dist::InvalidateReq             8                       # Transaction distribution
system.membus.pkt_count_system.l2.mem_side::system.mem_ctrls.port         1758                       # Packet count per connected master and slave (bytes)
system.membus.pkt_count::total                   1758                       # Packet count per connected master and slave (bytes)
system.membus.pkt_size_system.l2.mem_side::system.mem_ctrls.port        56000                       # Cumulative packet size per connected master and slave (bytes)
system.membus.pkt_size::total                   56000                       # Cumulative packet size per connected master and slave (bytes)
system.membus.snoops                                0                       # Total snoops (count)
system.membus.snoopTraffic                          0                       # Total snoop traffic (bytes)
system.membus.snoop_fanout::samples               883                       # Request fanout histogram
system.membus.snoop_fanout::mean                    0                       # Request fanout histogram
system.membus.snoop_fanout::stdev                   0                       # Request fanout histogram
system.membus.snoop_fanout::underflows              0      0.00%      0.00% # Request fanout histogram
system.membus.snoop_fanout::0                     883    100.00%    100.00% # Request fanout histogram
system.membus.snoop_fanout::1                       0      0.00%    100.00% # Request fanout histogram
system.membus.snoop_fanout::overflows               0      0.00%    100.00% # Request fanout histogram
system.membus.snoop_fanout::min_value               0                       # Request fanout histogram
system.membus.snoop_fanout::max_value               0                       # Request fanout histogram
system.membus.snoop_fanout::total                 883                       # Request fanout histogram
system.membus.reqLayer0.occupancy             1087000                       # Layer occupancy (ticks)
system.membus.reqLayer0.utilization               0.0                       # Layer utilization (%)
system.membus.respLayer1.occupancy            4650250                       # Layer occupancy (ticks)
system.membus.respLayer1.utilization              0.1                       # Layer utilization (%)
system.membus.power_state.pwrStateResidencyTicks::UNDEFINED   3300793500                       # Cumulative time (in ticks) in various power states
system.tol2bus.trans_dist::ReadResp             93696                       # Transaction distribution
system.tol2bus.trans_dist::WritebackClean        93341                       # Transaction distribution
system.tol2bus.trans_dist::ReadExReq              232                       # Transaction distribution
system.tol2bus.trans_dist::ReadExResp             232                       # Transaction distribution
system.tol2bus.trans_dist::ReadCleanReq         93590                       # Transaction distribution
system.tol2bus.trans_dist::ReadSharedReq          106                       # Transaction distribution
system.tol2bus.trans_dist::InvalidateReq            8                       # Transaction distribution
system.tol2bus.trans_dist::InvalidateResp            8                       # Transaction distribution
system.tol2bus.pkt_count_system.cpu.icache.mem_side::system.l2.cpu_side       280521                       # Packet count per connected master and slave (bytes)
system.tol2bus.pkt_count_system.cpu.dcache.mem_side::system.l2.cpu_side          692                       # Packet count per connected master and slave (bytes)
system.tol2bus.pkt_count::total                281213                       # Packet count per connected master and slave (bytes)
system.tol2bus.pkt_size_system.cpu.icache.mem_side::system.l2.cpu_side     11963584                       # Cumulative packet size per connected master and slave (bytes)
system.tol2bus.pkt_size_system.cpu.dcache.mem_side::system.l2.cpu_side        21632                       # Cumulative packet size per connected master and slave (bytes)
system.tol2bus.pkt_size::total               11985216                       # Cumulative packet size per connected master and slave (bytes)
system.tol2bus.snoops                               0                       # Total snoops (count)
system.tol2bus.snoopTraffic                         0                       # Total snoop traffic (bytes)
system.tol2bus.snoop_fanout::samples            93936                       # Request fanout histogram
system.tol2bus.snoop_fanout::mean            0.000011                       # Request fanout histogram
system.tol2bus.snoop_fanout::stdev           0.003263                       # Request fanout histogram
system.tol2bus.snoop_fanout::underflows             0      0.00%      0.00% # Request fanout histogram
system.tol2bus.snoop_fanout::0                  93935    100.00%    100.00% # Request fanout histogram
system.tol2bus.snoop_fanout::1                      1      0.00%    100.00% # Request fanout histogram
system.tol2bus.snoop_fanout::2                      0      0.00%    100.00% # Request fanout histogram
system.tol2bus.snoop_fanout::overflows              0      0.00%    100.00% # Request fanout histogram
system.tol2bus.snoop_fanout::min_value              0                       # Request fanout histogram
system.tol2bus.snoop_fanout::max_value              1                       # Request fanout histogram
system.tol2bus.snoop_fanout::total              93936                       # Request fanout histogram
system.tol2bus.reqLayer0.occupancy          186979500                       # Layer occupancy (ticks)
system.tol2bus.reqLayer0.utilization              5.7                       # Layer utilization (%)
system.tol2bus.respLayer1.occupancy            511000                       # Layer occupancy (ticks)
system.tol2bus.respLayer1.utilization             0.0                       # Layer utilization (%)
system.tol2bus.respLayer0.occupancy         140385000                       # Layer occupancy (ticks)
system.tol2bus.respLayer0.utilization             4.3                       # Layer utilization (%)
system.tol2bus.power_state.pwrStateResidencyTicks::UNDEFINED   3300793500                       # Cumulative time (in ticks) in various power states
system.voltage_domain.voltage                       1                       # Voltage in Volts
system.clk_domain.clock                          1000                       # Clock period in ticks
system.l2.demand_hits::.cpu.inst                93053                       # number of demand (read+write) hits
system.l2.demand_hits::total                    93053                       # number of demand (read+write) hits
system.l2.overall_hits::.cpu.inst               93053                       # number of overall hits
system.l2.overall_hits::total                   93053                       # number of overall hits
system.l2.demand_misses::.cpu.inst                537                       # number of demand (read+write) misses
system.l2.demand_misses::.cpu.data                338                       # number of demand (read+write) misses
system.l2.demand_misses::total                    875                       # number of demand (read+write) misses
system.l2.overall_misses::.cpu.inst               537                       # number of overall misses
system.l2.overall_misses::.cpu.data               338                       # number of overall misses
system.l2.overall_misses::total                   875                       # number of overall misses
system.l2.demand_miss_latency::.cpu.inst     43311500                       # number of demand (read+write) miss cycles
system.l2.demand_miss_latency::.cpu.data     28758500                       # number of demand (read+write) miss cycles
system.l2.demand_miss_latency::total         72070000                       # number of demand (read+write) miss cycles
system.l2.overall_miss_latency::.cpu.inst     43311500                       # number of overall miss cycles
system.l2.overall_miss_latency::.cpu.data     28758500                       # number of overall miss cycles
system.l2.overall_miss_latency::total        72070000                       # number of overall miss cycles
system.l2.demand_accesses::.cpu.inst            93590                       # number of demand (read+write) accesses
system.l2.demand_accesses::.cpu.data              338                       # number of demand (read+write) accesses
system.l2.demand_accesses::total                93928                       # number of demand (read+write) accesses
system.l2.overall_accesses::.cpu.inst           93590                       # number of overall (read+write) accesses
system.l2.overall_accesses::.cpu.data             338                       # number of overall (read+write) accesses
system.l2.overall_accesses::total               93928                       # number of overall (read+write) accesses
system.l2.demand_miss_rate::.cpu.inst        0.005738                       # miss rate for demand accesses
system.l2.demand_miss_rate::.cpu.data               1                       # miss rate for demand accesses
system.l2.demand_miss_rate::total            0.009316                       # miss rate for demand accesses
system.l2.overall_miss_rate::.cpu.inst       0.005738                       # miss rate for overall accesses
system.l2.overall_miss_rate::.cpu.data              1                       # miss rate for overall accesses
system.l2.overall_miss_rate::total           0.009316                       # miss rate for overall accesses
system.l2.demand_avg_miss_latency::.cpu.inst 80654.562384                       # average overall miss latency
system.l2.demand_avg_miss_latency::.cpu.data 85084.319527                       # average overall miss latency
system.l2.demand_avg_miss_latency::total 82365.714286                       # average overall miss latency
system.l2.overall_avg_miss_latency::.cpu.inst 80654.562384                       # average overall miss latency
system.l2.overall_avg_miss_latency::.cpu.data 85084.319527                       # average overall miss latency
system.l2.overall_avg_miss_latency::total 82365.714286                       # average overall miss latency
system.l2.blocked_cycles::no_mshrs                  0                       # number of cycles access was blocked
system.l2.blocked_cycles::no_targets                0                       # number of cycles access was blocked
system.l2.blocked::no_mshrs                         0                       # number of cycles access was blocked
system.l2.blocked::no_targets                       0                       # number of cycles access was blocked
system.l2.avg_blocked_cycles::no_mshrs            nan                       # average number of cycles each access was blocked
system.l2.avg_blocked_cycles::no_targets          nan                       # average number of cycles each access was blocked
system.l2.demand_mshr_misses::.cpu.inst           537                       # number of demand (read+write) MSHR misses
system.l2.demand_mshr_misses::.cpu.data           338                       # number of demand (read+write) MSHR misses
system.l2.demand_mshr_misses::total               875                       # number of demand (read+write) MSHR misses
system.l2.overall_mshr_misses::.cpu.inst          537                       # number of overall MSHR misses
system.l2.overall_mshr_misses::.cpu.data          338                       # number of overall MSHR misses
system.l2.overall_mshr_misses::total              875                       # number of overall MSHR misses
system.l2.demand_mshr_miss_latency::.cpu.inst     37941500                       # number of demand (read+write) MSHR miss cycles
system.l2.demand_mshr_miss_latency::.cpu.data     25378500                       # number of demand (read+write) MSHR miss cycles
system.l2.demand_mshr_miss_latency::total     63320000                       # number of demand (read+write) MSHR miss cycles
system.l2.overall_mshr_miss_latency::.cpu.inst     37941500                       # number of overall MSHR miss cycles
system.l2.overall_mshr_miss_latency::.cpu.data     25378500                       # number of overall MSHR miss cycles
system.l2.overall_mshr_miss_latency::total     63320000                       # number of overall MSHR miss cycles
system.l2.demand_mshr_miss_rate::.cpu.inst     0.005738                       # mshr miss rate for demand accesses
system.l2.demand_mshr_miss_rate::.cpu.data            1                       # mshr miss rate for demand accesses
system.l2.demand_mshr_miss_rate::total       0.009316                       # mshr miss rate for demand accesses
system.l2.overall_mshr_miss_rate::.cpu.inst     0.005738                       # mshr miss rate for overall accesses
system.l2.overall_mshr_miss_rate::.cpu.data            1                       # mshr miss rate for overall accesses
system.l2.overall_mshr_miss_rate::total      0.009316                       # mshr miss rate for overall accesses
system.l2.demand_avg_mshr_miss_latency::.cpu.inst 70654.562384                       # average overall mshr miss latency
system.l2.demand_avg_mshr_miss_latency::.cpu.data 75084.319527                       # average overall mshr miss latency
system.l2.demand_avg_mshr_miss_latency::total 72365.714286                       # average overall mshr miss latency
system.l2.overall_avg_mshr_miss_latency::.cpu.inst 70654.562384                       # average overall mshr miss latency
system.l2.overall_avg_mshr_miss_latency::.cpu.data 75084.319527                       # average overall mshr miss latency
system.l2.overall_avg_mshr_miss_latency::total 72365.714286                       # average overall mshr miss latency
system.l2.replacements                              0                       # number of replacements
system.l2.WritebackClean_hits::.writebacks        93340                       # number of WritebackClean hits
system.l2.WritebackClean_hits::total            93340                       # number of WritebackClean hits
system.l2.WritebackClean_accesses::.writebacks        93340                       # number of WritebackClean accesses(hits+misses)
system.l2.WritebackClean_accesses::total        93340                       # number of WritebackClean accesses(hits+misses)
system.l2.ReadExReq_misses::.cpu.data             232                       # number of ReadExReq misses
system.l2.ReadExReq_misses::total                 232                       # number of ReadExReq misses
system.l2.ReadExReq_miss_latency::.cpu.data     19072000                       # number of ReadExReq miss cycles
system.l2.ReadExReq_miss_latency::total      19072000                       # number of ReadExReq miss cycles
system.l2.ReadExReq_accesses::.cpu.data           232                       # number of ReadExReq accesses(hits+misses)
system.l2.ReadExReq_accesses::total               232                       # number of ReadExReq accesses(hits+misses)
system.l2.ReadExReq_miss_rate::.cpu.data            1                       # miss rate for ReadExReq accesses
system.l2.ReadExReq_miss_rate::total                1                       # miss rate for ReadExReq accesses
system.l2.ReadExReq_avg_miss_latency::.cpu.data 82206.896552                       # average ReadExReq miss latency
system.l2.ReadExReq_avg_miss_latency::total 82206.896552                       # average ReadExReq miss latency
system.l2.ReadExReq_mshr_misses::.cpu.data          232                       # number of ReadExReq MSHR misses
system.l2.ReadExReq_mshr_misses::total            232                       # number of ReadExReq MSHR misses
system.l2.ReadExReq_mshr_miss_latency::.cpu.data     16752000                       # number of ReadExReq MSHR miss cycles
system.l2.ReadExReq_mshr_miss_latency::total     16752000                       # number of ReadExReq MSHR miss cycles
system.l2.ReadExReq_mshr_miss_rate::.cpu.data            1                       # mshr miss rate for ReadExReq accesses
system.l2.ReadExReq_mshr_miss_rate::total            1                       # mshr miss rate for ReadExReq accesses
system.l2.ReadExReq_avg_mshr_miss_latency::.cpu.data 72206.896552                       # average ReadExReq mshr miss latency
system.l2.ReadExReq_avg_mshr_miss_latency::total 72206.896552                       # average ReadExReq mshr miss latency
system.l2.ReadCleanReq_hits::.cpu.inst          93053                       # number of ReadCleanReq hits
system.l2.ReadCleanReq_hits::total              93053                       # number of ReadCleanReq hits
system.l2.ReadCleanReq_misses::.cpu.inst          537                       # number of ReadCleanReq misses
system.l2.ReadCleanReq_misses::total              537                       # number of ReadCleanReq misses
system.l2.ReadCleanReq_miss_latency::.cpu.inst     43311500                       # number of ReadCleanReq miss cycles
system.l2.ReadCleanReq_miss_latency::total     43311500                       # number of ReadCleanReq miss cycles
system.l2.ReadCleanReq_accesses::.cpu.inst        93590                       # number of ReadCleanReq accesses(hits+misses)
system.l2.ReadCleanReq_accesses::total          93590                       # number of ReadCleanReq accesses(hits+misses)
system.l2.ReadCleanReq_miss_rate::.cpu.inst     0.005738                       # miss rate for ReadCleanReq accesses
system.l2.ReadCleanReq_miss_rate::total      0.005738                       # miss rate for ReadCleanReq accesses
system.l2.ReadCleanReq_avg_miss_latency::.cpu.inst 80654.562384                       # average ReadCleanReq miss latency
system.l2.ReadCleanReq_avg_miss_latency::total 80654.562384                       # average ReadCleanReq miss latency
system.l2.ReadCleanReq_mshr_misses::.cpu.inst          537                       # number of ReadCleanReq MSHR misses
system.l2.ReadCleanReq_mshr_misses::total          537                       # number of ReadCleanReq MSHR misses
system.l2.ReadCleanReq_mshr_miss_latency::.cpu.inst     37941500                       # number of ReadCleanReq MSHR miss cycles
system.l2.ReadCleanReq_mshr_miss_latency::total     37941500                       # number of ReadCleanReq MSHR miss cycles
system.l2.ReadCleanReq_mshr_miss_rate::.cpu.inst     0.005738                       # mshr miss rate for ReadCleanReq accesses
system.l2.ReadCleanReq_mshr_miss_rate::total     0.005738                       # mshr miss rate for ReadCleanReq accesses
system.l2.ReadCleanReq_avg_mshr_miss_latency::.cpu.inst 70654.562384                       # average ReadCleanReq mshr miss latency
system.l2.ReadCleanReq_avg_mshr_miss_latency::total 70654.562384                       # average ReadCleanReq mshr miss latency
system.l2.ReadSharedReq_misses::.cpu.data          106                       # number of ReadSharedReq misses
system.l2.ReadSharedReq_misses::total             106                       # number of ReadSharedReq misses
system.l2.ReadSharedReq_miss_latency::.cpu.data      9686500                       # number of ReadSharedReq miss cycles
system.l2.ReadSharedReq_miss_latency::total      9686500                       # number of ReadSharedReq miss cycles
system.l2.ReadSharedReq_accesses::.cpu.data          106                       # number of ReadSharedReq accesses(hits+misses)
system.l2.ReadSharedReq_accesses::total           106                       # number of ReadSharedReq accesses(hits+misses)
system.l2.ReadSharedReq_miss_rate::.cpu.data            1                       # miss rate for ReadSharedReq accesses
system.l2.ReadSharedReq_miss_rate::total            1                       # miss rate for ReadSharedReq accesses
system.l2.ReadSharedReq_avg_miss_latency::.cpu.data 91382.075472                       # average ReadSharedReq miss latency
system.l2.ReadSharedReq_avg_miss_latency::total 91382.075472                       # average ReadSharedReq miss latency
system.l2.ReadSharedReq_mshr_misses::.cpu.data          106                       # number of ReadSharedReq MSHR misses
system.l2.ReadSharedReq_mshr_misses::total          106                       # number of ReadSharedReq MSHR misses
system.l2.ReadSharedReq_mshr_miss_latency::.cpu.data      8626500                       # number of ReadSharedReq MSHR miss cycles
system.l2.ReadSharedReq_mshr_miss_latency::total      8626500                       # number of ReadSharedReq MSHR miss cycles
[...]
system.cpu.dcache.overall_misses::total          1618                       # number of overall misses
system.cpu.dcache.demand_miss_latency::.cpu.data    106982500                       # number of demand (read+write) miss cycles
system.cpu.dcache.demand_miss_latency::total    106982500                       # number of demand (read+write) miss cycles
system.cpu.dcache.overall_miss_latency::.cpu.data    106982500                       # number of overall miss cycles
system.cpu.dcache.overall_miss_latency::total    106982500                       # number of overall miss cycles
system.cpu.dcache.demand_accesses::.cpu.data      3043795                       # number of demand (read+write) accesses
system.cpu.dcache.demand_accesses::total      3043795                       # number of demand (read+write) accesses
system.cpu.dcache.overall_accesses::.cpu.data      3055225                       # number of overall (read+write) accesses
system.cpu.dcache.overall_accesses::total      3055225                       # number of overall (read+write) accesses
system.cpu.dcache.demand_miss_rate::.cpu.data     0.000531                       # miss rate for demand accesses
system.cpu.dcache.demand_miss_rate::total     0.000531                       # miss rate for demand accesses
system.cpu.dcache.overall_miss_rate::.cpu.data     0.000530                       # miss rate for overall accesses
system.cpu.dcache.overall_miss_rate::total     0.000530                       # miss rate for overall accesses
system.cpu.dcache.demand_avg_miss_latency::.cpu.data 66202.042079                       # average overall miss latency
system.cpu.dcache.demand_avg_miss_latency::total 66202.042079                       # average overall miss latency
system.cpu.dcache.overall_avg_miss_latency::.cpu.data 66120.210136                       # average overall miss latency
system.cpu.dcache.overall_avg_miss_latency::total 66120.210136                       # average overall miss latency
system.cpu.dcache.blocked_cycles::no_mshrs            0                       # number of cycles access was blocked
system.cpu.dcache.blocked_cycles::no_targets            0                       # number of cycles access was blocked
system.cpu.dcache.blocked::no_mshrs                 0                       # number of cycles access was blocked
system.cpu.dcache.blocked::no_targets               0                       # number of cycles access was blocked
system.cpu.dcache.avg_blocked_cycles::no_mshrs          nan                       # average number of cycles each access was blocked
system.cpu.dcache.avg_blocked_cycles::no_targets          nan                       # average number of cycles each access was blocked
system.cpu.dcache.demand_mshr_hits::.cpu.data         1273                       # number of demand (read+write) MSHR hits
system.cpu.dcache.demand_mshr_hits::total         1273                       # number of demand (read+write) MSHR hits
system.cpu.dcache.overall_mshr_hits::.cpu.data         1273                       # number of overall MSHR hits
system.cpu.dcache.overall_mshr_hits::total         1273                       # number of overall MSHR hits
system.cpu.dcache.demand_mshr_misses::.cpu.data          343                       # number of demand (read+write) MSHR misses
system.cpu.dcache.demand_mshr_misses::total          343                       # number of demand (read+write) MSHR misses
system.cpu.dcache.overall_mshr_misses::.cpu.data          345                       # number of overall MSHR misses
system.cpu.dcache.overall_mshr_misses::total          345                       # number of overall MSHR misses
system.cpu.dcache.demand_mshr_miss_latency::.cpu.data     29277000                       # number of demand (read+write) MSHR miss cycles
system.cpu.dcache.demand_mshr_miss_latency::total     29277000                       # number of demand (read+write) MSHR miss cycles
system.cpu.dcache.overall_mshr_miss_latency::.cpu.data     29436500                       # number of overall MSHR miss cycles
system.cpu.dcache.overall_mshr_miss_latency::total     29436500                       # number of overall MSHR miss cycles
system.cpu.dcache.demand_mshr_miss_rate::.cpu.data     0.000113                       # mshr miss rate for demand accesses
system.cpu.dcache.demand_mshr_miss_rate::total     0.000113                       # mshr miss rate for demand accesses
system.cpu.dcache.overall_mshr_miss_rate::.cpu.data     0.000113                       # mshr miss rate for overall accesses
system.cpu.dcache.overall_mshr_miss_rate::total     0.000113                       # mshr miss rate for overall accesses
system.cpu.dcache.demand_avg_mshr_miss_latency::.cpu.data 85355.685131                       # average overall mshr miss latency
system.cpu.dcache.demand_avg_mshr_miss_latency::total 85355.685131                       # average overall mshr miss latency
system.cpu.dcache.overall_avg_mshr_miss_latency::.cpu.data 85323.188406                       # average overall mshr miss latency
system.cpu.dcache.overall_avg_mshr_miss_latency::total 85323.188406                       # average overall mshr miss latency
system.cpu.dcache.replacements                      0                       # number of replacements
system.cpu.dcache.ReadReq_hits::.cpu.data      1533209                       # number of ReadReq hits
system.cpu.dcache.ReadReq_hits::total         1533209                       # number of ReadReq hits
system.cpu.dcache.ReadReq_misses::.cpu.data          247                       # number of ReadReq misses
system.cpu.dcache.ReadReq_misses::total           247                       # number of ReadReq misses
system.cpu.dcache.ReadReq_miss_latency::.cpu.data     19913000                       # number of ReadReq miss cycles
system.cpu.dcache.ReadReq_miss_latency::total     19913000                       # number of ReadReq miss cycles
system.cpu.dcache.ReadReq_accesses::.cpu.data      1533456                       # number of ReadReq accesses(hits+misses)
system.cpu.dcache.ReadReq_accesses::total      1533456                       # number of ReadReq accesses(hits+misses)
system.cpu.dcache.ReadReq_miss_rate::.cpu.data     0.000161                       # miss rate for ReadReq accesses
system.cpu.dcache.ReadReq_miss_rate::total     0.000161                       # miss rate for ReadReq accesses
system.cpu.dcache.ReadReq_avg_miss_latency::.cpu.data 80619.433198                       # average ReadReq miss latency
system.cpu.dcache.ReadReq_avg_miss_latency::total 80619.433198                       # average ReadReq miss latency
system.cpu.dcache.ReadReq_mshr_hits::.cpu.data          144                       # number of ReadReq MSHR hits
system.cpu.dcache.ReadReq_mshr_hits::total          144                       # number of ReadReq MSHR hits
system.cpu.dcache.ReadReq_mshr_misses::.cpu.data          103                       # number of ReadReq MSHR misses
system.cpu.dcache.ReadReq_mshr_misses::total          103                       # number of ReadReq MSHR misses
system.cpu.dcache.ReadReq_mshr_miss_latency::.cpu.data      9608500                       # number of ReadReq MSHR miss cycles
system.cpu.dcache.ReadReq_mshr_miss_latency::total      9608500                       # number of ReadReq MSHR miss cycles
system.cpu.dcache.ReadReq_mshr_miss_rate::.cpu.data     0.000067                       # mshr miss rate for ReadReq accesses
system.cpu.dcache.ReadReq_mshr_miss_rate::total     0.000067                       # mshr miss rate for ReadReq accesses
system.cpu.dcache.ReadReq_avg_mshr_miss_latency::.cpu.data 93286.407767                       # average ReadReq mshr miss latency
system.cpu.dcache.ReadReq_avg_mshr_miss_latency::total 93286.407767                       # average ReadReq mshr miss latency
system.cpu.dcache.WriteReq_hits::.cpu.data      1508970                       # number of WriteReq hits
system.cpu.dcache.WriteReq_hits::total        1508970                       # number of WriteReq hits
system.cpu.dcache.WriteReq_misses::.cpu.data         1362                       # number of WriteReq misses
system.cpu.dcache.WriteReq_misses::total         1362                       # number of WriteReq misses
system.cpu.dcache.WriteReq_miss_latency::.cpu.data     86846000                       # number of WriteReq miss cycles
system.cpu.dcache.WriteReq_miss_latency::total     86846000                       # number of WriteReq miss cycles
system.cpu.dcache.WriteReq_accesses::.cpu.data      1510332                       # number of WriteReq accesses(hits+misses)
system.cpu.dcache.WriteReq_accesses::total      1510332                       # number of WriteReq accesses(hits+misses)
system.cpu.dcache.WriteReq_miss_rate::.cpu.data     0.000902                       # miss rate for WriteReq accesses
system.cpu.dcache.WriteReq_miss_rate::total     0.000902                       # miss rate for WriteReq accesses
system.cpu.dcache.WriteReq_avg_miss_latency::.cpu.data 63763.582966                       # average WriteReq miss latency
system.cpu.dcache.WriteReq_avg_miss_latency::total 63763.582966                       # average WriteReq miss latency
system.cpu.dcache.WriteReq_mshr_hits::.cpu.data         1129                       # number of WriteReq MSHR hits
system.cpu.dcache.WriteReq_mshr_hits::total         1129                       # number of WriteReq MSHR hits
system.cpu.dcache.WriteReq_mshr_misses::.cpu.data          233                       # number of WriteReq MSHR misses
system.cpu.dcache.WriteReq_mshr_misses::total          233                       # number of WriteReq MSHR misses
system.cpu.dcache.WriteReq_mshr_miss_latency::.cpu.data     19452000                       # number of WriteReq MSHR miss cycles
system.cpu.dcache.WriteReq_mshr_miss_latency::total     19452000                       # number of WriteReq MSHR miss cycles
system.cpu.dcache.WriteReq_mshr_miss_rate::.cpu.data     0.000154                       # mshr miss rate for WriteReq accesses
system.cpu.dcache.WriteReq_mshr_miss_rate::total     0.000154                       # mshr miss rate for WriteReq accesses
system.cpu.dcache.WriteReq_avg_mshr_miss_latency::.cpu.data 83484.978541                       # average WriteReq mshr miss latency
system.cpu.dcache.WriteReq_avg_mshr_miss_latency::total 83484.978541                       # average WriteReq mshr miss latency
system.cpu.dcache.SoftPFReq_hits::.cpu.data        11428                       # number of SoftPFReq hits
system.cpu.dcache.SoftPFReq_hits::total         11428                       # number of SoftPFReq hits
system.cpu.dcache.SoftPFReq_misses::.cpu.data            2                       # number of SoftPFReq misses
system.cpu.dcache.SoftPFReq_misses::total            2                       # number of SoftPFReq misses
system.cpu.dcache.SoftPFReq_accesses::.cpu.data        11430                       # number of SoftPFReq accesses(hits+misses)
system.cpu.dcache.SoftPFReq_accesses::total        11430                       # number of SoftPFReq accesses(hits+misses)
system.cpu.dcache.SoftPFReq_miss_rate::.cpu.data     0.000175                       # miss rate for SoftPFReq accesses
system.cpu.dcache.SoftPFReq_miss_rate::total     0.000175                       # miss rate for SoftPFReq accesses
system.cpu.dcache.SoftPFReq_mshr_misses::.cpu.data            2                       # number of SoftPFReq MSHR misses
system.cpu.dcache.SoftPFReq_mshr_misses::total            2                       # number of SoftPFReq MSHR misses
system.cpu.dcache.SoftPFReq_mshr_miss_latency::.cpu.data       159500                       # number of SoftPFReq MSHR miss cycles
system.cpu.dcache.SoftPFReq_mshr_miss_latency::total       159500                       # number of SoftPFReq MSHR miss cycles
system.cpu.dcache.SoftPFReq_mshr_miss_rate::.cpu.data     0.000175                       # mshr miss rate for SoftPFReq accesses
system.cpu.dcache.SoftPFReq_mshr_miss_rate::total     0.000175                       # mshr miss rate for SoftPFReq accesses
system.cpu.dcache.SoftPFReq_avg_mshr_miss_latency::.cpu.data        79750                       # average SoftPFReq mshr miss latency
system.cpu.dcache.SoftPFReq_avg_mshr_miss_latency::total        79750                       # average SoftPFReq mshr miss latency
system.cpu.dcache.WriteLineReq_misses::.cpu.data            7                       # number of WriteLineReq misses
system.cpu.dcache.WriteLineReq_misses::total            7                       # number of WriteLineReq misses
system.cpu.dcache.WriteLineReq_miss_latency::.cpu.data       223500                       # number of WriteLineReq miss cycles
system.cpu.dcache.WriteLineReq_miss_latency::total       223500                       # number of WriteLineReq miss cycles
system.cpu.dcache.WriteLineReq_accesses::.cpu.data            7                       # number of WriteLineReq accesses(hits+misses)
system.cpu.dcache.WriteLineReq_accesses::total            7                       # number of WriteLineReq accesses(hits+misses)
system.cpu.dcache.WriteLineReq_miss_rate::.cpu.data            1                       # miss rate for WriteLineReq accesses
system.cpu.dcache.WriteLineReq_miss_rate::total            1                       # miss rate for WriteLineReq accesses
system.cpu.dcache.WriteLineReq_avg_miss_latency::.cpu.data 31928.571429                       # average WriteLineReq miss latency
system.cpu.dcache.WriteLineReq_avg_miss_latency::total 31928.571429                       # average WriteLineReq miss latency
system.cpu.dcache.WriteLineReq_mshr_misses::.cpu.data            7                       # number of WriteLineReq MSHR misses
system.cpu.dcache.WriteLineReq_mshr_misses::total            7                       # number of WriteLineReq MSHR misses
system.cpu.dcache.WriteLineReq_mshr_miss_latency::.cpu.data       216500                       # number of WriteLineReq MSHR miss cycles
system.cpu.dcache.WriteLineReq_mshr_miss_latency::total       216500                       # number of WriteLineReq MSHR miss cycles
system.cpu.dcache.WriteLineReq_mshr_miss_rate::.cpu.data            1                       # mshr miss rate for WriteLineReq accesses
system.cpu.dcache.WriteLineReq_mshr_miss_rate::total            1                       # mshr miss rate for WriteLineReq accesses
system.cpu.dcache.WriteLineReq_avg_mshr_miss_latency::.cpu.data 30928.571429                       # average WriteLineReq mshr miss latency
system.cpu.dcache.WriteLineReq_avg_mshr_miss_latency::total 30928.571429                       # average WriteLineReq mshr miss latency
system.cpu.dcache.LoadLockedReq_hits::.cpu.data        11427                       # number of LoadLockedReq hits
system.cpu.dcache.LoadLockedReq_hits::total        11427                       # number of LoadLockedReq hits
system.cpu.dcache.LoadLockedReq_misses::.cpu.data            2                       # number of LoadLockedReq misses
system.cpu.dcache.LoadLockedReq_misses::total            2                       # number of LoadLockedReq misses
system.cpu.dcache.LoadLockedReq_miss_latency::.cpu.data       169000                       # number of LoadLockedReq miss cycles
system.cpu.dcache.LoadLockedReq_miss_latency::total       169000                       # number of LoadLockedReq miss cycles
system.cpu.dcache.LoadLockedReq_accesses::.cpu.data        11429                       # number of LoadLockedReq accesses(hits+misses)
system.cpu.dcache.LoadLockedReq_accesses::total        11429                       # number of LoadLockedReq accesses(hits+misses)
system.cpu.dcache.LoadLockedReq_miss_rate::.cpu.data     0.000175                       # miss rate for LoadLockedReq accesses
system.cpu.dcache.LoadLockedReq_miss_rate::total     0.000175                       # miss rate for LoadLockedReq accesses
system.cpu.dcache.LoadLockedReq_avg_miss_latency::.cpu.data        84500                       # average LoadLockedReq miss latency
system.cpu.dcache.LoadLockedReq_avg_miss_latency::total        84500                       # average LoadLockedReq miss latency
system.cpu.dcache.LoadLockedReq_mshr_hits::.cpu.data            1                       # number of LoadLockedReq MSHR hits
system.cpu.dcache.LoadLockedReq_mshr_hits::total            1                       # number of LoadLockedReq MSHR hits
system.cpu.dcache.LoadLockedReq_mshr_misses::.cpu.data            1                       # number of LoadLockedReq MSHR misses
system.cpu.dcache.LoadLockedReq_mshr_misses::total            1                       # number of LoadLockedReq MSHR misses
system.cpu.dcache.LoadLockedReq_mshr_miss_latency::.cpu.data        81500                       # number of LoadLockedReq MSHR miss cycles
system.cpu.dcache.LoadLockedReq_mshr_miss_latency::total        81500                       # number of LoadLockedReq MSHR miss cycles
system.cpu.dcache.LoadLockedReq_mshr_miss_rate::.cpu.data     0.000087                       # mshr miss rate for LoadLockedReq accesses
system.cpu.dcache.LoadLockedReq_mshr_miss_rate::total     0.000087                       # mshr miss rate for LoadLockedReq accesses
system.cpu.dcache.LoadLockedReq_avg_mshr_miss_latency::.cpu.data        81500                       # average LoadLockedReq mshr miss latency
system.cpu.dcache.LoadLockedReq_avg_mshr_miss_latency::total        81500                       # average LoadLockedReq mshr miss latency
system.cpu.dcache.StoreCondReq_hits::.cpu.data        11427                       # number of StoreCondReq hits
system.cpu.dcache.StoreCondReq_hits::total        11427                       # number of StoreCondReq hits
system.cpu.dcache.StoreCondReq_accesses::.cpu.data        11427                       # number of StoreCondReq accesses(hits+misses)
system.cpu.dcache.StoreCondReq_accesses::total        11427                       # number of StoreCondReq accesses(hits+misses)
system.cpu.dcache.power_state.pwrStateResidencyTicks::UNDEFINED   3300793500                       # Cumulative time (in ticks) in various power states
system.cpu.dcache.tags.tagsinuse           333.800286                       # Cycle average of tags in use
system.cpu.dcache.tags.total_refs             3076807                       # Total number of references to valid blocks.
system.cpu.dcache.tags.sampled_refs               346                       # Sample count of references to valid blocks.
system.cpu.dcache.tags.avg_refs           8892.505780                       # Average number of references to valid blocks.
system.cpu.dcache.tags.warmup_cycle            176500                       # Cycle when the warmup percentage was hit.
system.cpu.dcache.tags.occ_blocks::.cpu.data   333.800286                       # Average occupied blocks per requestor
system.cpu.dcache.tags.occ_percent::.cpu.data     0.325977                       # Average percentage of cache occupancy
system.cpu.dcache.tags.occ_percent::total     0.325977                       # Average percentage of cache occupancy
system.cpu.dcache.tags.occ_task_id_blocks::1024          346                       # Occupied blocks per task id
system.cpu.dcache.tags.age_task_id_blocks_1024::3          346                       # Occupied blocks per task id
system.cpu.dcache.tags.occ_task_id_percent::1024     0.337891                       # Percentage of cache occupancy per task id
system.cpu.dcache.tags.tag_accesses           6156508                       # Number of tag accesses
system.cpu.dcache.tags.data_accesses          6156508                       # Number of data accesses
system.cpu.dcache.tags.power_state.pwrStateResidencyTicks::UNDEFINED   3300793500                       # Cumulative time (in ticks) in various power states
system.cpu.power_state.pwrStateResidencyTicks::ON   3300793500                       # Cumulative time (in ticks) in various power states

---------- End Simulation Statistics   ----------
