
---------- Begin Simulation Statistics ----------
final_tick                                 1326149500                       # Number of ticks from beginning of simulation (restored from checkpoints and never reset)
host_inst_rate                                 115192                       # Simulator instruction rate (inst/s)
host_mem_usage                                 890636                       # Number of bytes of host memory used
host_op_rate                                   132969                       # Simulator op (including micro ops) rate (op/s)
host_seconds                                    24.59                       # Real time elapsed on the host
host_tick_rate                               53920007                       # Simulator tick rate (ticks/s)
sim_freq                                 1000000000000                       # Frequency of simulated ticks
sim_insts                                     2833100                       # Number of instructions simulated
sim_ops                                       3270344                       # Number of ops (including micro ops) simulated
sim_seconds                                  0.001326                       # Number of seconds simulated
sim_ticks                                  1326149500                       # Number of ticks simulated
system.cpu.branchPred.BTBCorrect                    0                       # Number of correct BTB predictions (this stat may not work properly.
system.cpu.branchPred.BTBHitPct             98.476714                       # BTB Hit Percentage
system.cpu.branchPred.BTBHits                  302098                       # Number of BTB hits
system.cpu.branchPred.BTBLookups               306771                       # Number of BTB lookups
system.cpu.branchPred.RASInCorrect                  4                       # Number of incorrect RAS predictions.
system.cpu.branchPred.condIncorrect              7321                       # Number of conditional branches incorrect
system.cpu.branchPred.condPredicted            536488                       # Number of conditional branches predicted
system.cpu.branchPred.indirectHits               1234                       # Number of indirect target hits.
system.cpu.branchPred.indirectLookups            2085                       # Number of indirect predictor lookups.
system.cpu.branchPred.indirectMisses              851                       # Number of indirect misses.
system.cpu.branchPred.lookups                  663722                       # Number of BP lookups
system.cpu.branchPred.usedRAS                   37789                       # Number of times the RAS was used to get a target.
system.cpu.branchPredindirectMispredicted          148                       # Number of mispredicted indirect branches.
system.cpu.cc_regfile_reads                    990762                       # number of cc regfile reads
system.cpu.cc_regfile_writes                   984717                       # number of cc regfile writes
system.cpu.commit.amos                              0                       # Number of atomic instructions committed
system.cpu.commit.branchMispredicts              5903                       # The number of times a branch was mispredicted
system.cpu.commit.branches                     559313                       # Number of branches committed
system.cpu.commit.bw_lim_events                188336                       # number cycles where commit BW limit reached
system.cpu.commit.commitNonSpecStalls             388                       # The number of times commit has been forced to stall to communicate backwards
system.cpu.commit.commitSquashedInsts          283481                       # The number of squashed insts skipped by commit
system.cpu.commit.committedInsts              2845009                       # Number of instructions committed
system.cpu.commit.committedOps                3282253                       # Number of ops (including micro ops) committed
system.cpu.commit.committed_per_cycle::samples      2489885                       # Number of insts commited each cycle
system.cpu.commit.committed_per_cycle::mean     1.318235                       # Number of insts commited each cycle
system.cpu.commit.committed_per_cycle::stdev     2.425182                       # Number of insts commited each cycle
system.cpu.commit.committed_per_cycle::underflows            0      0.00%      0.00% # Number of insts commited each cycle
system.cpu.commit.committed_per_cycle::0      1619544     65.04%     65.04% # Number of insts commited each cycle
system.cpu.commit.committed_per_cycle::1       276383     11.10%     76.15% # Number of insts commited each cycle
system.cpu.commit.committed_per_cycle::2       127620      5.13%     81.27% # Number of insts commited each cycle
system.cpu.commit.committed_per_cycle::3       104785      4.21%     85.48% # Number of insts commited each cycle
system.cpu.commit.committed_per_cycle::4        55088      2.21%     87.69% # Number of insts commited each cycle
system.cpu.commit.committed_per_cycle::5        23787      0.96%     88.65% # Number of insts commited each cycle
system.cpu.commit.committed_per_cycle::6        70094      2.82%     91.46% # Number of insts commited each cycle
system.cpu.commit.committed_per_cycle::7        24248      0.97%     92.44% # Number of insts commited each cycle
system.cpu.commit.committed_per_cycle::8       188336      7.56%    100.00% # Number of insts commited each cycle
system.cpu.commit.committed_per_cycle::overflows            0      0.00%    100.00% # Number of insts commited each cycle
system.cpu.commit.committed_per_cycle::min_value            0                       # Number of insts commited each cycle
system.cpu.commit.committed_per_cycle::max_value            8                       # Number of insts commited each cycle
system.cpu.commit.committed_per_cycle::total      2489885                       # Number of insts commited each cycle
system.cpu.commit.fp_insts                          0                       # Number of committed floating point instructions.
system.cpu.commit.function_calls                29833                       # Number of function calls committed.
system.cpu.commit.int_insts                   2980509                       # Number of committed integer instructions.
system.cpu.commit.loads                        448105                       # Number of loads committed
system.cpu.commit.membars                         278                       # Number of memory barriers committed
system.cpu.commit.op_class_0::No_OpClass           38      0.00%      0.00% # Class of committed instruction
system.cpu.commit.op_class_0::IntAlu          2375636     72.38%     72.38% # Class of committed instruction
system.cpu.commit.op_class_0::IntMult           17827      0.54%     72.92% # Class of committed instruction
system.cpu.commit.op_class_0::IntDiv              512      0.02%     72.94% # Class of committed instruction
system.cpu.commit.op_class_0::FloatAdd            625      0.02%     72.96% # Class of committed instruction
system.cpu.commit.op_class_0::FloatCmp            137      0.00%     72.96% # Class of committed instruction
system.cpu.commit.op_class_0::FloatCvt           1604      0.05%     73.01% # Class of committed instruction
system.cpu.commit.op_class_0::FloatMult           946      0.03%     73.04% # Class of committed instruction
system.cpu.commit.op_class_0::FloatMultAcc         1506      0.05%     73.08% # Class of committed instruction
system.cpu.commit.op_class_0::FloatDiv            628      0.02%     73.10% # Class of committed instruction
system.cpu.commit.op_class_0::FloatMisc          1211      0.04%     73.14% # Class of committed instruction
system.cpu.commit.op_class_0::FloatSqrt             0      0.00%     73.14% # Class of committed instruction
system.cpu.commit.op_class_0::SimdAdd              98      0.00%     73.14% # Class of committed instruction
system.cpu.commit.op_class_0::SimdAddAcc            0      0.00%     73.14% # Class of committed instruction
system.cpu.commit.op_class_0::SimdAlu             162      0.00%     73.15% # Class of committed instruction
system.cpu.commit.op_class_0::SimdCmp             152      0.00%     73.15% # Class of committed instruction
system.cpu.commit.op_class_0::SimdCvt               0      0.00%     73.15% # Class of committed instruction
system.cpu.commit.op_class_0::SimdMisc            754      0.02%     73.18% # Class of committed instruction
system.cpu.commit.op_class_0::SimdMult              0      0.00%     73.18% # Class of committed instruction
system.cpu.commit.op_class_0::SimdMultAcc            0      0.00%     73.18% # Class of committed instruction
system.cpu.commit.op_class_0::SimdShift             0      0.00%     73.18% # Class of committed instruction
system.cpu.commit.op_class_0::SimdShiftAcc            0      0.00%     73.18% # Class of committed instruction
system.cpu.commit.op_class_0::SimdDiv               0      0.00%     73.18% # Class of committed instruction
system.cpu.commit.op_class_0::SimdSqrt              0      0.00%     73.18% # Class of committed instruction
system.cpu.commit.op_class_0::SimdFloatAdd            0      0.00%     73.18% # Class of committed instruction
system.cpu.commit.op_class_0::SimdFloatAlu            0      0.00%     73.18% # Class of committed instruction
system.cpu.commit.op_class_0::SimdFloatCmp            0      0.00%     73.18% # Class of committed instruction
system.cpu.commit.op_class_0::SimdFloatCvt            0      0.00%     73.18% # Class of committed instruction
system.cpu.commit.op_class_0::SimdFloatDiv            0      0.00%     73.18% # Class of committed instruction
system.cpu.commit.op_class_0::SimdFloatMisc            0      0.00%     73.18% # Class of committed instruction
system.cpu.commit.op_class_0::SimdFloatMult            0      0.00%     73.18% # Class of committed instruction
system.cpu.commit.op_class_0::SimdFloatMultAcc            0      0.00%     73.18% # Class of committed instruction
system.cpu.commit.op_class_0::SimdFloatSqrt            0      0.00%     73.18% # Class of committed instruction
system.cpu.commit.op_class_0::SimdReduceAdd            0      0.00%     73.18% # Class of committed instruction
system.cpu.commit.op_class_0::SimdReduceAlu            0      0.00%     73.18% # Class of committed instruction
system.cpu.commit.op_class_0::SimdReduceCmp            0      0.00%     73.18% # Class of committed instruction
system.cpu.commit.op_class_0::SimdFloatReduceAdd            0      0.00%     73.18% # Class of committed instruction
system.cpu.commit.op_class_0::SimdFloatReduceCmp            0      0.00%     73.18% # Class of committed instruction
system.cpu.commit.op_class_0::SimdAes               0      0.00%     73.18% # Class of committed instruction
system.cpu.commit.op_class_0::SimdAesMix            0      0.00%     73.18% # Class of committed instruction
system.cpu.commit.op_class_0::SimdSha1Hash            0      0.00%     73.18% # Class of committed instruction
system.cpu.commit.op_class_0::SimdSha1Hash2            0      0.00%     73.18% # Class of committed instruction
system.cpu.commit.op_class_0::SimdSha256Hash            0      0.00%     73.18% # Class of committed instruction
system.cpu.commit.op_class_0::SimdSha256Hash2            0      0.00%     73.18% # Class of committed instruction
system.cpu.commit.op_class_0::SimdShaSigma2            0      0.00%     73.18% # Class of committed instruction
system.cpu.commit.op_class_0::SimdShaSigma3            0      0.00%     73.18% # Class of committed instruction
system.cpu.commit.op_class_0::SimdPredAlu            0      0.00%     73.18% # Class of committed instruction
system.cpu.commit.op_class_0::MemRead          448105     13.65%     86.83% # Class of committed instruction
system.cpu.commit.op_class_0::MemWrite         432312     13.17%    100.00% # Class of committed instruction
system.cpu.commit.op_class_0::FloatMemRead            0      0.00%    100.00% # Class of committed instruction
system.cpu.commit.op_class_0::FloatMemWrite            0      0.00%    100.00% # Class of committed instruction
system.cpu.commit.op_class_0::IprAccess             0      0.00%    100.00% # Class of committed instruction
system.cpu.commit.op_class_0::InstPrefetch            0      0.00%    100.00% # Class of committed instruction
system.cpu.commit.op_class_0::total           3282253                       # Class of committed instruction
system.cpu.commit.refs                         880417                       # Number of memory references committed
system.cpu.commit.swp_count                         0                       # Number of s/w prefetches committed
system.cpu.commit.vec_insts                     29063                       # Number of committed Vector instructions.
system.cpu.committedInsts                     2833100                       # Number of Instructions Simulated
system.cpu.committedOps                       3270344                       # Number of Ops (including micro ops) Simulated
system.cpu.cpi                               0.936183                       # CPI: Cycles Per Instruction
system.cpu.cpi_total                         0.936183                       # CPI: Total CPI of All Threads
system.cpu.decode.BlockedCycles               1488482                       # Number of cycles decode is blocked
system.cpu.decode.BranchMispred                  1458                       # Number of times decode detected a branch misprediction
system.cpu.decode.BranchResolved               292610                       # Number of times decode resolved a branch
system.cpu.decode.DecodedInsts                3648843                       # Number of instructions handled by decode
system.cpu.decode.IdleCycles                   425245                       # Number of cycles decode is idle
system.cpu.decode.RunCycles                    555310                       # Number of cycles decode is running
system.cpu.decode.SquashCycles                   8870                       # Number of cycles decode is squashing
system.cpu.decode.SquashedInsts                  4643                       # Number of squashed instructions handled by decode
system.cpu.decode.UnblockCycles                 52418                       # Number of cycles decode is unblocking
system.cpu.dtb.accesses                             0                       # DTB accesses
system.cpu.dtb.align_faults                         0                       # Number of TLB faults due to alignment restrictions
system.cpu.dtb.domain_faults                        0                       # Number of TLB faults due to domain restrictions
system.cpu.dtb.flush_entries                        0                       # Number of entries that have been flushed from TLB
system.cpu.dtb.flush_tlb                            0                       # Number of times complete TLB was flushed
system.cpu.dtb.flush_tlb_asid                       0                       # Number of times TLB was flushed by ASID
system.cpu.dtb.flush_tlb_mva                        0                       # Number of times TLB was flushed by MVA
system.cpu.dtb.flush_tlb_mva_asid                   0                       # Number of times TLB was flushed by MVA & ASID
system.cpu.dtb.hits                                 0                       # DTB hits
system.cpu.dtb.inst_accesses                        0                       # ITB inst accesses
system.cpu.dtb.inst_hits                            0                       # ITB inst hits
system.cpu.dtb.inst_misses                          0                       # ITB inst misses
system.cpu.dtb.misses                               0                       # DTB misses
system.cpu.dtb.perms_faults                         0                       # Number of TLB faults due to permissions restrictions
system.cpu.dtb.prefetch_faults                      0                       # Number of TLB faults due to prefetch
system.cpu.dtb.read_accesses                        0                       # DTB read accesses
system.cpu.dtb.read_hits                            0                       # DTB read hits
system.cpu.dtb.read_misses                          0                       # DTB read misses
system.cpu.dtb.stage2_mmu.stage2_tlb.accesses            0                       # DTB accesses
system.cpu.dtb.stage2_mmu.stage2_tlb.align_faults            0                       # Number of TLB faults due to alignment restrictions
system.cpu.dtb.stage2_mmu.stage2_tlb.domain_faults            0                       # Number of TLB faults due to domain restrictions
system.cpu.dtb.stage2_mmu.stage2_tlb.flush_entries            0                       # Number of entries that have been flushed from TLB
system.cpu.dtb.stage2_mmu.stage2_tlb.flush_tlb            0                       # Number of times complete TLB was flushed
system.cpu.dtb.stage2_mmu.stage2_tlb.flush_tlb_asid            0                       # Number of times TLB was flushed by ASID
system.cpu.dtb.stage2_mmu.stage2_tlb.flush_tlb_mva            0                       # Number of times TLB was flushed by MVA
system.cpu.dtb.stage2_mmu.stage2_tlb.flush_tlb_mva_asid            0                       # Number of times TLB was flushed by MVA & ASID
system.cpu.dtb.stage2_mmu.stage2_tlb.hits            0                       # DTB hits
system.cpu.dtb.stage2_mmu.stage2_tlb.inst_accesses            0                       # ITB inst accesses
system.cpu.dtb.stage2_mmu.stage2_tlb.inst_hits            0                       # ITB inst hits
system.cpu.dtb.stage2_mmu.stage2_tlb.inst_misses            0                       # ITB inst misses
system.cpu.dtb.stage2_mmu.stage2_tlb.misses            0                       # DTB misses
system.cpu.dtb.stage2_mmu.stage2_tlb.perms_faults            0                       # Number of TLB faults due to permissions restrictions
system.cpu.dtb.stage2_mmu.stage2_tlb.prefetch_faults            0                       # Number of TLB faults due to prefetch
system.cpu.dtb.stage2_mmu.stage2_tlb.read_accesses            0                       # DTB read accesses
system.cpu.dtb.stage2_mmu.stage2_tlb.read_hits            0                       # DTB read hits
system.cpu.dtb.stage2_mmu.stage2_tlb.read_misses            0                       # DTB read misses
system.cpu.dtb.stage2_mmu.stage2_tlb.walker.walkRequestOrigin_Requested::Data            0                       # Table walker requests started/completed, data/inst
system.cpu.dtb.stage2_mmu.stage2_tlb.walker.walkRequestOrigin_Requested::Inst            0                       # Table walker requests started/completed, data/inst
system.cpu.dtb.stage2_mmu.stage2_tlb.walker.walkRequestOrigin_Requested::total            0                       # Table walker requests started/completed, data/inst
system.cpu.dtb.stage2_mmu.stage2_tlb.walker.walkRequestOrigin_Completed::Data            0                       # Table walker requests started/completed, data/inst
system.cpu.dtb.stage2_mmu.stage2_tlb.walker.walkRequestOrigin_Completed::Inst            0                       # Table walker requests started/completed, data/inst
system.cpu.dtb.stage2_mmu.stage2_tlb.walker.walkRequestOrigin_Completed::total            0                       # Table walker requests started/completed, data/inst
system.cpu.dtb.stage2_mmu.stage2_tlb.walker.walkRequestOrigin::total            0                       # Table walker requests started/completed, data/inst
system.cpu.dtb.stage2_mmu.stage2_tlb.walker.walks            0                       # Table walker walks requested
system.cpu.dtb.stage2_mmu.stage2_tlb.write_accesses            0                       # DTB write accesses
system.cpu.dtb.stage2_mmu.stage2_tlb.write_hits            0                       # DTB write hits
system.cpu.dtb.stage2_mmu.stage2_tlb.write_misses            0                       # DTB write misses
system.cpu.dtb.walker.walkRequestOrigin_Requested::Data            0                       # Table walker requests started/completed, data/inst
system.cpu.dtb.walker.walkRequestOrigin_Requested::Inst            0                       # Table walker requests started/completed, data/inst
system.cpu.dtb.walker.walkRequestOrigin_Requested::total            0                       # Table walker requests started/completed, data/inst
system.cpu.dtb.walker.walkRequestOrigin_Completed::Data            0                       # Table walker requests started/completed, data/inst
system.cpu.dtb.walker.walkRequestOrigin_Completed::Inst            0                       # Table walker requests started/completed, data/inst
system.cpu.dtb.walker.walkRequestOrigin_Completed::total            0                       # Table walker requests started/completed, data/inst
system.cpu.dtb.walker.walkRequestOrigin::total            0                       # Table walker requests started/completed, data/inst
system.cpu.dtb.walker.walks                         0                       # Table walker walks requested
system.cpu.dtb.write_accesses                       0                       # DTB write accesses
system.cpu.dtb.write_hits                           0                       # DTB write hits
system.cpu.dtb.write_misses                         0                       # DTB write misses
system.cpu.fetch.Branches                      663722                       # Number of branches that fetch encountered
system.cpu.fetch.CacheLines                    447105                       # Number of cache lines fetched
system.cpu.fetch.Cycles                       1950368                       # Number of cycles fetch has run and was not squashing or blocked
system.cpu.fetch.IcacheSquashes                  4398                       # Number of outstanding Icache misses that were squashed
system.cpu.fetch.Insts                        3299518                       # Number of instructions fetch has processed
system.cpu.fetch.MiscStallCycles                   20                       # Number of cycles fetch has spent waiting on interrupts, or bad addresses, or out of MSHRs
system.cpu.fetch.PendingTrapStallCycles           120                       # Number of stall cycles due to pending traps
system.cpu.fetch.SquashCycles                   20616                       # Number of cycles fetch has spent squashing
system.cpu.fetch.branchRate                  0.250244                       # Number of branch fetches per cycle
system.cpu.fetch.icacheStallCycles             569509                       # Number of cycles fetch is stalled on an Icache miss
system.cpu.fetch.predictedBranches             341121                       # Number of branches that fetch has predicted taken
system.cpu.fetch.rate                        1.244021                       # Number of inst fetches per cycle
system.cpu.fetch.rateDist::samples            2530325                       # Number of instructions fetched each cycle (Total)
system.cpu.fetch.rateDist::mean              1.512908                       # Number of instructions fetched each cycle (Total)
system.cpu.fetch.rateDist::stdev             2.745374                       # Number of instructions fetched each cycle (Total)
system.cpu.fetch.rateDist::underflows               0      0.00%      0.00% # Number of instructions fetched each cycle (Total)
system.cpu.fetch.rateDist::0                  1813441     71.67%     71.67% # Number of instructions fetched each cycle (Total)
system.cpu.fetch.rateDist::1                    64140      2.53%     74.20% # Number of instructions fetched each cycle (Total)
system.cpu.fetch.rateDist::2                    76006      3.00%     77.21% # Number of instructions fetched each cycle (Total)
system.cpu.fetch.rateDist::3                    45289      1.79%     79.00% # Number of instructions fetched each cycle (Total)
system.cpu.fetch.rateDist::4                    93226      3.68%     82.68% # Number of instructions fetched each cycle (Total)
system.cpu.fetch.rateDist::5                    82396      3.26%     85.94% # Number of instructions fetched each cycle (Total)
system.cpu.fetch.rateDist::6                    46611      1.84%     87.78% # Number of instructions fetched each cycle (Total)
system.cpu.fetch.rateDist::7                    62148      2.46%     90.24% # Number of instructions fetched each cycle (Total)
system.cpu.fetch.rateDist::8                   247068      9.76%    100.00% # Number of instructions fetched each cycle (Total)
system.cpu.fetch.rateDist::overflows                0      0.00%    100.00% # Number of instructions fetched each cycle (Total)
system.cpu.fetch.rateDist::min_value                0                       # Number of instructions fetched each cycle (Total)
system.cpu.fetch.rateDist::max_value                8                       # Number of instructions fetched each cycle (Total)
system.cpu.fetch.rateDist::total              2530325                       # Number of instructions fetched each cycle (Total)
system.cpu.icache.prefetcher.num_hwpf_issued        21008                       # number of hwpf issued
system.cpu.icache.prefetcher.pfBufferHit          205                       # number of redundant prefetches already in prefetch queue
system.cpu.icache.prefetcher.pfIdentified        21401                       # number of prefetch candidates identified
system.cpu.icache.prefetcher.pfInCache              0                       # number of redundant prefetches already in cache/mshr dropped
system.cpu.icache.prefetcher.pfRemovedFull            0                       # number of prefetches dropped due to prefetch queue size
system.cpu.icache.prefetcher.pfSpanPage         61708                       # number of prefetches that crossed the page
system.cpu.idleCycles                          121975                       # Total number of cycles that the CPU has spent unscheduled due to idling
system.cpu.iew.branchMispredicts                 6481                       # Number of branch mispredicts detected at execute
system.cpu.iew.exec_branches                   608911                       # Number of branches executed
system.cpu.iew.exec_nop                         12205                       # number of nop insts executed
system.cpu.iew.exec_rate                     1.326867                       # Inst execution rate
system.cpu.iew.exec_refs                       965275                       # number of memory reference insts executed
system.cpu.iew.exec_stores                     466336                       # Number of stores executed
system.cpu.iew.exec_swp                             0                       # number of swp insts executed
system.cpu.iew.iewBlockCycles                   42402                       # Number of cycles IEW is blocking
system.cpu.iew.iewDispLoadInsts                507452                       # Number of dispatched load instructions
system.cpu.iew.iewDispNonSpecInsts                543                       # Number of dispatched non-speculative instructions
system.cpu.iew.iewDispSquashedInsts              6352                       # Number of squashed instructions skipped by dispatch
system.cpu.iew.iewDispStoreInsts               473113                       # Number of dispatched store instructions
system.cpu.iew.iewDispatchedInsts             3577540                       # Number of instructions dispatched to IQ
system.cpu.iew.iewExecLoadInsts                498939                       # Number of load instructions executed
system.cpu.iew.iewExecSquashedInsts             13098                       # Number of squashed instructions skipped in execute
system.cpu.iew.iewExecutedInsts               3519250                       # Number of executed instructions
system.cpu.iew.iewIQFullEvents                    124                       # Number of times the IQ has become full, causing a stall
system.cpu.iew.iewIdleCycles                        0                       # Number of cycles IEW is idle
system.cpu.iew.iewLSQFullEvents                  7941                       # Number of times the LSQ has become full, causing a stall
system.cpu.iew.iewSquashCycles                   8870                       # Number of cycles IEW is squashing
system.cpu.iew.iewUnblockCycles                  8215                       # Number of cycles IEW is unblocking
system.cpu.iew.lsq.thread0.blockedLoads             0                       # Number of blocked loads due to partial load-store forwarding
system.cpu.iew.lsq.thread0.cacheBlocked           793                       # Number of times an access to memory failed due to the cache being blocked
system.cpu.iew.lsq.thread0.forwLoads            15033                       # Number of loads that had data forwarded from stores
system.cpu.iew.lsq.thread0.ignoredResponses           14                       # Number of memory responses ignored because the instruction is squashed
system.cpu.iew.lsq.thread0.invAddrLoads             0                       # Number of loads ignored due to an invalid address
system.cpu.iew.lsq.thread0.invAddrSwpfs             0                       # Number of software prefetches ignored due to an invalid address
system.cpu.iew.lsq.thread0.memOrderViolation           44                       # Number of memory ordering violations
system.cpu.iew.lsq.thread0.rescheduledLoads         1002                       # Number of loads that were rescheduled
system.cpu.iew.lsq.thread0.squashedLoads        59347                       # Number of loads squashed
system.cpu.iew.lsq.thread0.squashedStores        40801                       # Number of stores squashed
system.cpu.iew.memOrderViolationEvents             44                       # Number of memory order violations
system.cpu.iew.predictedNotTakenIncorrect         3702                       # Number of branches that were predicted not taken incorrectly
system.cpu.iew.predictedTakenIncorrect           2779                       # Number of branches that were predicted taken incorrectly
system.cpu.iew.wb_consumers                   3282163                       # num instructions consuming a value
system.cpu.iew.wb_count                       3502747                       # cumulative count of insts written-back
system.cpu.iew.wb_fanout                     0.611091                       # average fanout of values written-back
system.cpu.iew.wb_producers                   2005701                       # num instructions producing a value
system.cpu.iew.wb_rate                       1.320645                       # insts written-back per cycle
system.cpu.iew.wb_sent                        3514811                       # cumulative count of insts sent to commit
system.cpu.int_regfile_reads                  3987517                       # number of integer regfile reads
system.cpu.int_regfile_writes                 2557539                       # number of integer regfile writes
system.cpu.ipc                               1.068167                       # IPC: Instructions Per Cycle
system.cpu.ipc_total                         1.068167                       # IPC: Total IPC of All Threads
system.cpu.iq.FU_type_0::No_OpClass                62      0.00%      0.00% # Type of FU issued
system.cpu.iq.FU_type_0::IntAlu               2532261     71.69%     71.69% # Type of FU issued
system.cpu.iq.FU_type_0::IntMult                18987      0.54%     72.23% # Type of FU issued
system.cpu.iq.FU_type_0::IntDiv                   608      0.02%     72.24% # Type of FU issued
system.cpu.iq.FU_type_0::FloatAdd                 639      0.02%     72.26% # Type of FU issued
system.cpu.iq.FU_type_0::FloatCmp                 138      0.00%     72.27% # Type of FU issued
system.cpu.iq.FU_type_0::FloatCvt                1991      0.06%     72.32% # Type of FU issued
system.cpu.iq.FU_type_0::FloatMult               1044      0.03%     72.35% # Type of FU issued
system.cpu.iq.FU_type_0::FloatMultAcc            1523      0.04%     72.40% # Type of FU issued
system.cpu.iq.FU_type_0::FloatDiv                 810      0.02%     72.42% # Type of FU issued
system.cpu.iq.FU_type_0::FloatMisc               1613      0.05%     72.46% # Type of FU issued
system.cpu.iq.FU_type_0::FloatSqrt                  0      0.00%     72.46% # Type of FU issued
system.cpu.iq.FU_type_0::SimdAdd                  114      0.00%     72.47% # Type of FU issued
system.cpu.iq.FU_type_0::SimdAddAcc                 0      0.00%     72.47% # Type of FU issued
system.cpu.iq.FU_type_0::SimdAlu                  186      0.01%     72.47% # Type of FU issued
system.cpu.iq.FU_type_0::SimdCmp                  168      0.00%     72.48% # Type of FU issued
system.cpu.iq.FU_type_0::SimdCvt                    0      0.00%     72.48% # Type of FU issued
system.cpu.iq.FU_type_0::SimdMisc                 851      0.02%     72.50% # Type of FU issued
system.cpu.iq.FU_type_0::SimdMult                   0      0.00%     72.50% # Type of FU issued
system.cpu.iq.FU_type_0::SimdMultAcc                0      0.00%     72.50% # Type of FU issued
system.cpu.iq.FU_type_0::SimdShift                  0      0.00%     72.50% # Type of FU issued
system.cpu.iq.FU_type_0::SimdShiftAcc               0      0.00%     72.50% # Type of FU issued
system.cpu.iq.FU_type_0::SimdDiv                    0      0.00%     72.50% # Type of FU issued
system.cpu.iq.FU_type_0::SimdSqrt                   0      0.00%     72.50% # Type of FU issued
system.cpu.iq.FU_type_0::SimdFloatAdd               0      0.00%     72.50% # Type of FU issued
system.cpu.iq.FU_type_0::SimdFloatAlu               0      0.00%     72.50% # Type of FU issued
system.cpu.iq.FU_type_0::SimdFloatCmp               0      0.00%     72.50% # Type of FU issued
system.cpu.iq.FU_type_0::SimdFloatCvt               0      0.00%     72.50% # Type of FU issued
system.cpu.iq.FU_type_0::SimdFloatDiv               0      0.00%     72.50% # Type of FU issued
system.cpu.iq.FU_type_0::SimdFloatMisc              0      0.00%     72.50% # Type of FU issued
system.cpu.iq.FU_type_0::SimdFloatMult              0      0.00%     72.50% # Type of FU issued
system.cpu.iq.FU_type_0::SimdFloatMultAcc            0      0.00%     72.50% # Type of FU issued
system.cpu.iq.FU_type_0::SimdFloatSqrt              0      0.00%     72.50% # Type of FU issued
system.cpu.iq.FU_type_0::SimdReduceAdd              0      0.00%     72.50% # Type of FU issued
system.cpu.iq.FU_type_0::SimdReduceAlu              0      0.00%     72.50% # Type of FU issued
system.cpu.iq.FU_type_0::SimdReduceCmp              0      0.00%     72.50% # Type of FU issued
system.cpu.iq.FU_type_0::SimdFloatReduceAdd            0      0.00%     72.50% # Type of FU issued
system.cpu.iq.FU_type_0::SimdFloatReduceCmp            0      0.00%     72.50% # Type of FU issued
system.cpu.iq.FU_type_0::SimdAes                    0      0.00%     72.50% # Type of FU issued
system.cpu.iq.FU_type_0::SimdAesMix                 0      0.00%     72.50% # Type of FU issued
system.cpu.iq.FU_type_0::SimdSha1Hash               0      0.00%     72.50% # Type of FU issued
system.cpu.iq.FU_type_0::SimdSha1Hash2              0      0.00%     72.50% # Type of FU issued
system.cpu.iq.FU_type_0::SimdSha256Hash             0      0.00%     72.50% # Type of FU issued
system.cpu.iq.FU_type_0::SimdSha256Hash2            0      0.00%     72.50% # Type of FU issued
system.cpu.iq.FU_type_0::SimdShaSigma2              0      0.00%     72.50% # Type of FU issued
system.cpu.iq.FU_type_0::SimdShaSigma3              0      0.00%     72.50% # Type of FU issued
system.cpu.iq.FU_type_0::SimdPredAlu                0      0.00%     72.50% # Type of FU issued
system.cpu.iq.FU_type_0::MemRead               502631     14.23%     86.73% # Type of FU issued
system.cpu.iq.FU_type_0::MemWrite              468722     13.27%    100.00% # Type of FU issued
system.cpu.iq.FU_type_0::FloatMemRead               0      0.00%    100.00% # Type of FU issued
system.cpu.iq.FU_type_0::FloatMemWrite              0      0.00%    100.00% # Type of FU issued
system.cpu.iq.FU_type_0::IprAccess                  0      0.00%    100.00% # Type of FU issued
system.cpu.iq.FU_type_0::InstPrefetch               0      0.00%    100.00% # Type of FU issued
system.cpu.iq.FU_type_0::total                3532348                       # Type of FU issued
system.cpu.iq.fp_alu_accesses                       0                       # Number of floating point alu accesses
system.cpu.iq.fp_inst_queue_reads                   0                       # Number of floating instruction queue reads
system.cpu.iq.fp_inst_queue_wakeup_accesses            0                       # Number of floating instruction queue wakeup accesses
system.cpu.iq.fp_inst_queue_writes                  0                       # Number of floating instruction queue writes
system.cpu.iq.fu_busy_cnt                       53345                       # FU busy when requested
system.cpu.iq.fu_busy_rate                   0.015102                       # FU busy rate (busy events/executed inst)
system.cpu.iq.fu_full::No_OpClass                   0      0.00%      0.00% # attempts to use FU when none available
system.cpu.iq.fu_full::IntAlu                   26709     50.07%     50.07% # attempts to use FU when none available
system.cpu.iq.fu_full::IntMult                    680      1.27%     51.34% # attempts to use FU when none available
system.cpu.iq.fu_full::IntDiv                      39      0.07%     51.42% # attempts to use FU when none available
system.cpu.iq.fu_full::FloatAdd                     0      0.00%     51.42% # attempts to use FU when none available
system.cpu.iq.fu_full::FloatCmp                     0      0.00%     51.42% # attempts to use FU when none available
system.cpu.iq.fu_full::FloatCvt                     0      0.00%     51.42% # attempts to use FU when none available
system.cpu.iq.fu_full::FloatMult                  113      0.21%     51.63% # attempts to use FU when none available
system.cpu.iq.fu_full::FloatMultAcc               160      0.30%     51.93% # attempts to use FU when none available
system.cpu.iq.fu_full::FloatDiv                     0      0.00%     51.93% # attempts to use FU when none available
system.cpu.iq.fu_full::FloatMisc                   64      0.12%     52.05% # attempts to use FU when none available
system.cpu.iq.fu_full::FloatSqrt                    0      0.00%     52.05% # attempts to use FU when none available
system.cpu.iq.fu_full::SimdAdd                      0      0.00%     52.05% # attempts to use FU when none available
system.cpu.iq.fu_full::SimdAddAcc                   0      0.00%     52.05% # attempts to use FU when none available
system.cpu.iq.fu_full::SimdAlu                      2      0.00%     52.05% # attempts to use FU when none available
system.cpu.iq.fu_full::SimdCmp                     12      0.02%     52.07% # attempts to use FU when none available
system.cpu.iq.fu_full::SimdCvt                      0      0.00%     52.07% # attempts to use FU when none available
system.cpu.iq.fu_full::SimdMisc                     0      0.00%     52.07% # attempts to use FU when none available
system.cpu.iq.fu_full::SimdMult                     0      0.00%     52.07% # attempts to use FU when none available
system.cpu.iq.fu_full::SimdMultAcc                  0      0.00%     52.07% # attempts to use FU when none available
system.cpu.iq.fu_full::SimdShift                    0      0.00%     52.07% # attempts to use FU when none available
system.cpu.iq.fu_full::SimdShiftAcc                 0      0.00%     52.07% # attempts to use FU when none available
system.cpu.iq.fu_full::SimdDiv                      0      0.00%     52.07% # attempts to use FU when none available
system.cpu.iq.fu_full::SimdSqrt                     0      0.00%     52.07% # attempts to use FU when none available
system.cpu.iq.fu_full::SimdFloatAdd                 0      0.00%     52.07% # attempts to use FU when none available
system.cpu.iq.fu_full::SimdFloatAlu                 0      0.00%     52.07% # attempts to use FU when none available
system.cpu.iq.fu_full::SimdFloatCmp                 0      0.00%     52.07% # attempts to use FU when none available
system.cpu.iq.fu_full::SimdFloatCvt                 0      0.00%     52.07% # attempts to use FU when none available
system.cpu.iq.fu_full::SimdFloatDiv                 0      0.00%     52.07% # attempts to use FU when none available
system.cpu.iq.fu_full::SimdFloatMisc                0      0.00%     52.07% # attempts to use FU when none available
system.cpu.iq.fu_full::SimdFloatMult                0      0.00%     52.07% # attempts to use FU when none available
system.cpu.iq.fu_full::SimdFloatMultAcc             0      0.00%     52.07% # attempts to use FU when none available
system.cpu.iq.fu_full::SimdFloatSqrt                0      0.00%     52.07% # attempts to use FU when none available
system.cpu.iq.fu_full::SimdReduceAdd                0      0.00%     52.07% # attempts to use FU when none available
system.cpu.iq.fu_full::SimdReduceAlu                0      0.00%     52.07% # attempts to use FU when none available
system.cpu.iq.fu_full::SimdReduceCmp                0      0.00%     52.07% # attempts to use FU when none available
system.cpu.iq.fu_full::SimdFloatReduceAdd            0      0.00%     52.07% # attempts to use FU when none available
system.cpu.iq.fu_full::SimdFloatReduceCmp            0      0.00%     52.07% # attempts to use FU when none available
system.cpu.iq.fu_full::SimdAes                      0      0.00%     52.07% # attempts to use FU when none available
system.cpu.iq.fu_full::SimdAesMix                   0      0.00%     52.07% # attempts to use FU when none available
system.cpu.iq.fu_full::SimdSha1Hash                 0      0.00%     52.07% # attempts to use FU when none available
system.cpu.iq.fu_full::SimdSha1Hash2                0      0.00%     52.07% # attempts to use FU when none available
system.cpu.iq.fu_full::SimdSha256Hash               0      0.00%     52.07% # attempts to use FU when none available
system.cpu.iq.fu_full::SimdSha256Hash2              0      0.00%     52.07% # attempts to use FU when none available
system.cpu.iq.fu_full::SimdShaSigma2                0      0.00%     52.07% # attempts to use FU when none available
system.cpu.iq.fu_full::SimdShaSigma3                0      0.00%     52.07% # attempts to use FU when none available
system.cpu.iq.fu_full::SimdPredAlu                  0      0.00%     52.07% # attempts to use FU when none available
system.cpu.iq.fu_full::MemRead                   4065      7.62%     59.69% # attempts to use FU when none available
system.cpu.iq.fu_full::MemWrite                 21501     40.31%    100.00% # attempts to use FU when none available
system.cpu.iq.fu_full::FloatMemRead                 0      0.00%    100.00% # attempts to use FU when none available
system.cpu.iq.fu_full::FloatMemWrite                0      0.00%    100.00% # attempts to use FU when none available
system.cpu.iq.fu_full::IprAccess                    0      0.00%    100.00% # attempts to use FU when none available
system.cpu.iq.fu_full::InstPrefetch                 0      0.00%    100.00% # attempts to use FU when none available
system.cpu.iq.int_alu_accesses                3551112                       # Number of integer alu accesses
system.cpu.iq.int_inst_queue_reads            9582802                       # Number of integer instruction queue reads
system.cpu.iq.int_inst_queue_wakeup_accesses      3471647                       # Number of integer instruction queue wakeup accesses
system.cpu.iq.int_inst_queue_writes           3821460                       # Number of integer instruction queue writes
system.cpu.iq.iqInstsAdded                    3564792                       # Number of instructions added to the IQ (excludes non-spec)
system.cpu.iq.iqInstsIssued                   3532348                       # Number of instructions issued
system.cpu.iq.iqNonSpecInstsAdded                 543                       # Number of non-speculative instructions added to the IQ
system.cpu.iq.iqSquashedInstsExamined          294990                       # Number of squashed instructions iterated over during squash; mainly for profiling
system.cpu.iq.iqSquashedInstsIssued              1296                       # Number of squashed instructions issued
system.cpu.iq.iqSquashedNonSpecRemoved            155                       # Number of squashed non-spec instructions that were removed
system.cpu.iq.iqSquashedOperandsExamined       129471                       # Number of squashed operands that are examined and possibly removed from graph
system.cpu.iq.issued_per_cycle::samples       2530325                       # Number of insts issued each cycle
system.cpu.iq.issued_per_cycle::mean         1.396006                       # Number of insts issued each cycle
system.cpu.iq.issued_per_cycle::stdev        2.106926                       # Number of insts issued each cycle
system.cpu.iq.issued_per_cycle::underflows            0      0.00%      0.00% # Number of insts issued each cycle
system.cpu.iq.issued_per_cycle::0             1493404     59.02%     59.02% # Number of insts issued each cycle
system.cpu.iq.issued_per_cycle::1              208234      8.23%     67.25% # Number of insts issued each cycle
system.cpu.iq.issued_per_cycle::2              198123      7.83%     75.08% # Number of insts issued each cycle
system.cpu.iq.issued_per_cycle::3              196099      7.75%     82.83% # Number of insts issued each cycle
system.cpu.iq.issued_per_cycle::4              163767      6.47%     89.30% # Number of insts issued each cycle
system.cpu.iq.issued_per_cycle::5               80088      3.17%     92.47% # Number of insts issued each cycle
system.cpu.iq.issued_per_cycle::6               94377      3.73%     96.20% # Number of insts issued each cycle
system.cpu.iq.issued_per_cycle::7               52063      2.06%     98.25% # Number of insts issued each cycle
system.cpu.iq.issued_per_cycle::8               44170      1.75%    100.00% # Number of insts issued each cycle
system.cpu.iq.issued_per_cycle::overflows            0      0.00%    100.00% # Number of insts issued each cycle
system.cpu.iq.issued_per_cycle::min_value            0                       # Number of insts issued each cycle
system.cpu.iq.issued_per_cycle::max_value            8                       # Number of insts issued each cycle
system.cpu.iq.issued_per_cycle::total         2530325                       # Number of insts issued each cycle
system.cpu.iq.rate                           1.331806                       # Inst issue rate
system.cpu.iq.vec_alu_accesses                  34519                       # Number of vector alu accesses
system.cpu.iq.vec_inst_queue_reads              66860                       # Number of vector instruction queue reads
system.cpu.iq.vec_inst_queue_wakeup_accesses        31100                       # Number of vector instruction queue wakeup accesses
system.cpu.iq.vec_inst_queue_writes             38903                       # Number of vector instruction queue writes
system.cpu.itb.accesses                             0                       # DTB accesses
system.cpu.itb.align_faults                         0                       # Number of TLB faults due to alignment restrictions
system.cpu.itb.domain_faults                        0                       # Number of TLB faults due to domain restrictions
system.cpu.itb.flush_entries                        0                       # Number of entries that have been flushed from TLB
system.cpu.itb.flush_tlb                            0                       # Number of times complete TLB was flushed
system.cpu.itb.flush_tlb_asid                       0                       # Number of times TLB was flushed by ASID
system.cpu.itb.flush_tlb_mva                        0                       # Number of times TLB was flushed by MVA
system.cpu.itb.flush_tlb_mva_asid                   0                       # Number of times TLB was flushed by MVA & ASID
system.cpu.itb.hits                                 0                       # DTB hits
system.cpu.itb.inst_accesses                        0                       # ITB inst accesses
system.cpu.itb.inst_hits                            0                       # ITB inst hits
system.cpu.itb.inst_misses                          0                       # ITB inst misses
system.cpu.itb.misses                               0                       # DTB misses
system.cpu.itb.perms_faults                         0                       # Number of TLB faults due to permissions restrictions
system.cpu.itb.prefetch_faults                      0                       # Number of TLB faults due to prefetch
system.cpu.itb.read_accesses                        0                       # DTB read accesses
system.cpu.itb.read_hits                            0                       # DTB read hits
system.cpu.itb.read_misses                          0                       # DTB read misses
system.cpu.itb.stage2_mmu.stage2_tlb.accesses            0                       # DTB accesses
system.cpu.itb.stage2_mmu.stage2_tlb.align_faults            0                       # Number of TLB faults due to alignment restrictions
system.cpu.itb.stage2_mmu.stage2_tlb.domain_faults            0                       # Number of TLB faults due to domain restrictions
system.cpu.itb.stage2_mmu.stage2_tlb.flush_entries            0                       # Number of entries that have been flushed from TLB
system.cpu.itb.stage2_mmu.stage2_tlb.flush_tlb            0                       # Number of times complete TLB was flushed
system.cpu.itb.stage2_mmu.stage2_tlb.flush_tlb_asid            0                       # Number of times TLB was flushed by ASID
system.cpu.itb.stage2_mmu.stage2_tlb.flush_tlb_mva            0                       # Number of times TLB was flushed by MVA
system.cpu.itb.stage2_mmu.stage2_tlb.flush_tlb_mva_asid            0                       # Number of times TLB was flushed by MVA & ASID
system.cpu.itb.stage2_mmu.stage2_tlb.hits            0                       # DTB hits
system.cpu.itb.stage2_mmu.stage2_tlb.inst_accesses            0                       # ITB inst accesses
system.cpu.itb.stage2_mmu.stage2_tlb.inst_hits            0                       # ITB inst hits
system.cpu.itb.stage2_mmu.stage2_tlb.inst_misses            0                       # ITB inst misses
system.cpu.itb.stage2_mmu.stage2_tlb.misses            0                       # DTB misses
system.cpu.itb.stage2_mmu.stage2_tlb.perms_faults            0                       # Number of TLB faults due to permissions restrictions
system.cpu.itb.stage2_mmu.stage2_tlb.prefetch_faults            0                       # Number of TLB faults due to prefetch
system.cpu.itb.stage2_mmu.stage2_tlb.read_accesses            0                       # DTB read accesses
system.cpu.itb.stage2_mmu.stage2_tlb.read_hits            0                       # DTB read hits
system.cpu.itb.stage2_mmu.stage2_tlb.read_misses            0                       # DTB read misses
system.cpu.itb.stage2_mmu.stage2_tlb.walker.walkRequestOrigin_Requested::Data            0                       # Table walker requests started/completed, data/inst
system.cpu.itb.stage2_mmu.stage2_tlb.walker.walkRequestOrigin_Requested::Inst            0                       # Table walker requests started/completed, data/inst
system.cpu.itb.stage2_mmu.stage2_tlb.walker.walkRequestOrigin_Requested::total            0                       # Table walker requests started/completed, data/inst
system.cpu.itb.stage2_mmu.stage2_tlb.walker.walkRequestOrigin_Completed::Data            0                       # Table walker requests started/completed, data/inst
system.cpu.itb.stage2_mmu.stage2_tlb.walker.walkRequestOrigin_Completed::Inst            0                       # Table walker requests started/completed, data/inst
system.cpu.itb.stage2_mmu.stage2_tlb.walker.walkRequestOrigin_Completed::total            0                       # Table walker requests started/completed, data/inst
system.cpu.itb.stage2_mmu.stage2_tlb.walker.walkRequestOrigin::total            0                       # Table walker requests started/completed, data/inst
system.cpu.itb.stage2_mmu.stage2_tlb.walker.walks            0                       # Table walker walks requested
system.cpu.itb.stage2_mmu.stage2_tlb.write_accesses            0                       # DTB write accesses
system.cpu.itb.stage2_mmu.stage2_tlb.write_hits            0                       # DTB write hits
system.cpu.itb.stage2_mmu.stage2_tlb.write_misses            0                       # DTB write misses
system.cpu.itb.walker.walkRequestOrigin_Requested::Data            0                       # Table walker requests started/completed, data/inst
system.cpu.itb.walker.walkRequestOrigin_Requested::Inst            0                       # Table walker requests started/completed, data/inst
system.cpu.itb.walker.walkRequestOrigin_Requested::total            0                       # Table walker requests started/completed, data/inst
system.cpu.itb.walker.walkRequestOrigin_Completed::Data            0                       # Table walker requests started/completed, data/inst
system.cpu.itb.walker.walkRequestOrigin_Completed::Inst            0                       # Table walker requests started/completed, data/inst
system.cpu.itb.walker.walkRequestOrigin_Completed::total            0                       # Table walker requests started/completed, data/inst
system.cpu.itb.walker.walkRequestOrigin::total            0                       # Table walker requests started/completed, data/inst
system.cpu.itb.walker.walks                         0                       # Table walker walks requested
system.cpu.itb.write_accesses                       0                       # DTB write accesses
system.cpu.itb.write_hits                           0                       # DTB write hits
system.cpu.itb.write_misses                         0                       # DTB write misses
system.cpu.memDep0.conflictingLoads              5211                       # Number of conflicting loads.
system.cpu.memDep0.conflictingStores             4897                       # Number of conflicting stores.
system.cpu.memDep0.insertedLoads               507452                       # Number of loads inserted to the mem dependence unit.
system.cpu.memDep0.insertedStores              473113                       # Number of stores inserted to the mem dependence unit.
system.cpu.misc_regfile_reads                 2445953                       # number of misc regfile reads
system.cpu.misc_regfile_writes                   6559                       # number of misc regfile writes
system.cpu.numCycles                          2652300                       # number of cpu cycles simulated
system.cpu.numWorkItemsCompleted                    0                       # number of work items this cpu completed
system.cpu.numWorkItemsStarted                      0                       # number of work items this cpu started
system.cpu.rename.BlockCycles                   55415                       # Number of cycles rename is blocking
system.cpu.rename.CommittedMaps               3318812                       # Number of HB maps that are committed
system.cpu.rename.IQFullEvents                   8409                       # Number of times rename has blocked due to IQ full
system.cpu.rename.IdleCycles                   442657                       # Number of cycles rename is idle
system.cpu.rename.LQFullEvents                   3373                       # Number of times rename has blocked due to LQ full
system.cpu.rename.ROBFullEvents                   578                       # Number of times rename has blocked due to ROB full
system.cpu.rename.RenameLookups               5395061                       # Number of register rename lookups that rename has made
system.cpu.rename.RenamedInsts                3605772                       # Number of instructions processed by rename
system.cpu.rename.RenamedOperands             3644645                       # Number of destination operands rename has renamed
system.cpu.rename.RunCycles                    589457                       # Number of cycles rename is running
system.cpu.rename.SQFullEvents                 109287                       # Number of times rename has blocked due to SQ full
system.cpu.rename.SquashCycles                   8870                       # Number of cycles rename is squashing
system.cpu.rename.UnblockCycles                144891                       # Number of cycles rename is unblocking
system.cpu.rename.UndoneMaps                   325833                       # Number of HB maps that are undone due to squashing
system.cpu.rename.int_rename_lookups          4075806                       # Number of integer rename lookups
system.cpu.rename.serializeStallCycles        1289035                       # count of cycles rename stalled for serializing inst
system.cpu.rename.serializingInsts              24491                       # count of serializing insts renamed
system.cpu.rename.skidInsts                    216537                       # count of insts added to the skid buffer
system.cpu.rename.tempSerializingInsts            542                       # count of temporary serializing insts renamed
system.cpu.rename.vec_rename_lookups            35602                       # Number of vector rename lookups
system.cpu.rob.rob_reads                      5829102                       # The number of ROB reads
system.cpu.rob.rob_writes                     7171944                       # The number of ROB writes
system.cpu.timesIdled                            3397                       # Number of times that the entire CPU went into an idle state and unscheduled itself
system.cpu.vec_regfile_reads                    31885                       # number of vector regfile reads
system.cpu.vec_regfile_writes                   10177                       # number of vector regfile writes
system.cpu.workload.numSyscalls                   109                       # Number of system calls
system.membus.snoop_filter.hit_multi_requests            0                       # Number of requests hitting in the snoop filter with multiple (>1) holders of the requested data.
system.membus.snoop_filter.hit_multi_snoops            0                       # Number of snoops hitting in the snoop filter with multiple (>1) holders of the requested data.
system.membus.snoop_filter.hit_single_requests            0                       # Number of requests hitting in the snoop filter with a single holder of the requested data.
system.membus.snoop_filter.hit_single_snoops            0                       # Number of snoops hitting in the snoop filter with a single holder of the requested data.
system.membus.snoop_filter.tot_requests         27374                       # Total number of requests made to the snoop filter.
system.membus.snoop_filter.tot_snoops               0                       # Total number of snoops made to the snoop filter.
system.tol2bus.snoop_filter.hit_multi_requests            2                       # Number of requests hitting in the snoop filter with multiple (>1) holders of the requested data.
system.tol2bus.snoop_filter.hit_multi_snoops            0                       # Number of snoops hitting in the snoop filter with multiple (>1) holders of the requested data.
system.tol2bus.snoop_filter.hit_single_requests        34110                       # Number of requests hitting in the snoop filter with a single holder of the requested data.
system.tol2bus.snoop_filter.hit_single_snoops            0                       # Number of snoops hitting in the snoop filter with a single holder of the requested data.
system.tol2bus.snoop_filter.tot_requests        69501                       # Total number of requests made to the snoop filter.
system.tol2bus.snoop_filter.tot_snoops              0                       # Total number of snoops made to the snoop filter.
system.membus.trans_dist::ReadResp               1862                       # Transaction distribution
system.membus.trans_dist::ReadExReq              8321                       # Transaction distribution
system.membus.trans_dist::ReadExResp             8321                       # Transaction distribution
system.membus.trans_dist::ReadSharedReq          1862                       # Transaction distribution
system.membus.trans_dist::InvalidateReq         17191                       # Transaction distribution
system.membus.pkt_count_system.l2.mem_side::system.mem_ctrls.port        37557                       # Packet count per connected master and slave (bytes)
system.membus.pkt_count::total                  37557                       # Packet count per connected master and slave (bytes)
system.membus.pkt_size_system.l2.mem_side::system.mem_ctrls.port       651712                       # Cumulative packet size per connected master and slave (bytes)
system.membus.pkt_size::total                  651712                       # Cumulative packet size per connected master and slave (bytes)
system.membus.snoops                                0                       # Total snoops (count)
system.membus.snoopTraffic                          0                       # Total snoop traffic (bytes)
system.membus.snoop_fanout::samples             27374                       # Request fanout histogram
system.membus.snoop_fanout::mean                    0                       # Request fanout histogram
system.membus.snoop_fanout::stdev                   0                       # Request fanout histogram
system.membus.snoop_fanout::underflows              0      0.00%      0.00% # Request fanout histogram
system.membus.snoop_fanout::0                   27374    100.00%    100.00% # Request fanout histogram
system.membus.snoop_fanout::1                       0      0.00%    100.00% # Request fanout histogram
system.membus.snoop_fanout::overflows               0      0.00%    100.00% # Request fanout histogram
system.membus.snoop_fanout::min_value               0                       # Request fanout histogram
system.membus.snoop_fanout::max_value               0                       # Request fanout histogram
system.membus.snoop_fanout::total               27374                       # Request fanout histogram
system.membus.reqLayer0.occupancy            29991000                       # Layer occupancy (ticks)
system.membus.reqLayer0.utilization               2.3                       # Layer utilization (%)
system.membus.respLayer1.occupancy           54089750                       # Layer occupancy (ticks)
system.membus.respLayer1.utilization              4.1                       # Layer utilization (%)
system.membus.power_state.pwrStateResidencyTicks::UNDEFINED   1326149500                       # Cumulative time (in ticks) in various power states
system.tol2bus.trans_dist::ReadResp              9686                       # Transaction distribution
system.tol2bus.trans_dist::WritebackDirty        25300                       # Transaction distribution
system.tol2bus.trans_dist::WritebackClean         8378                       # Transaction distribution
system.tol2bus.trans_dist::CleanEvict             432                       # Transaction distribution
system.tol2bus.trans_dist::ReadExReq             8480                       # Transaction distribution
system.tol2bus.trans_dist::ReadExResp            8480                       # Transaction distribution
system.tol2bus.trans_dist::ReadCleanReq          8635                       # Transaction distribution
system.tol2bus.trans_dist::ReadSharedReq         1052                       # Transaction distribution
system.tol2bus.trans_dist::InvalidateReq        17224                       # Transaction distribution
system.tol2bus.trans_dist::InvalidateResp        17224                       # Transaction distribution
system.tol2bus.pkt_count_system.cpu.icache.mem_side::system.l2.cpu_side        25647                       # Packet count per connected master and slave (bytes)
system.tol2bus.pkt_count_system.cpu.dcache.mem_side::system.l2.cpu_side        79244                       # Packet count per connected master and slave (bytes)
system.tol2bus.pkt_count::total                104891                       # Packet count per connected master and slave (bytes)
system.tol2bus.pkt_size_system.cpu.icache.mem_side::system.l2.cpu_side      1088768                       # Cumulative packet size per connected master and slave (bytes)
system.tol2bus.pkt_size_system.cpu.dcache.mem_side::system.l2.cpu_side      2229248                       # Cumulative packet size per connected master and slave (bytes)
system.tol2bus.pkt_size::total                3318016                       # Cumulative packet size per connected master and slave (bytes)
system.tol2bus.snoops                               0                       # Total snoops (count)
system.tol2bus.snoopTraffic                         0                       # Total snoop traffic (bytes)
system.tol2bus.snoop_fanout::samples            35391                       # Request fanout histogram
system.tol2bus.snoop_fanout::mean            0.000057                       # Request fanout histogram
system.tol2bus.snoop_fanout::stdev           0.007517                       # Request fanout histogram
system.tol2bus.snoop_fanout::underflows             0      0.00%      0.00% # Request fanout histogram
system.tol2bus.snoop_fanout::0                  35389     99.99%     99.99% # Request fanout histogram
system.tol2bus.snoop_fanout::1                      2      0.01%    100.00% # Request fanout histogram
system.tol2bus.snoop_fanout::2                      0      0.00%    100.00% # Request fanout histogram
system.tol2bus.snoop_fanout::overflows              0      0.00%    100.00% # Request fanout histogram
system.tol2bus.snoop_fanout::min_value              0                       # Request fanout histogram
system.tol2bus.snoop_fanout::max_value              1                       # Request fanout histogram
system.tol2bus.snoop_fanout::total              35391                       # Request fanout histogram
system.tol2bus.reqLayer0.occupancy           69595490                       # Layer occupancy (ticks)
system.tol2bus.reqLayer0.utilization              5.2                       # Layer utilization (%)
system.tol2bus.respLayer1.occupancy          22917984                       # Layer occupancy (ticks)
system.tol2bus.respLayer1.utilization             1.7                       # Layer utilization (%)
system.tol2bus.respLayer0.occupancy          12952497                       # Layer occupancy (ticks)
system.tol2bus.respLayer0.utilization             1.0                       # Layer utilization (%)
system.tol2bus.power_state.pwrStateResidencyTicks::UNDEFINED   1326149500                       # Cumulative time (in ticks) in various power states
system.voltage_domain.voltage                       1                       # Voltage in Volts
system.clk_domain.clock                          1000                       # Clock period in ticks
system.l2.demand_hits::.cpu.inst                 4355                       # number of demand (read+write) hits
system.l2.demand_hits::.cpu.data                  599                       # number of demand (read+write) hits
system.l2.demand_hits::.cpu.icache.prefetcher         3029                       # number of demand (read+write) hits
system.l2.demand_hits::total                     7983                       # number of demand (read+write) hits
system.l2.overall_hits::.cpu.inst                4355                       # number of overall hits
system.l2.overall_hits::.cpu.data                 599                       # number of overall hits
system.l2.overall_hits::.cpu.icache.prefetcher         3029                       # number of overall hits
system.l2.overall_hits::total                    7983                       # number of overall hits
system.l2.demand_misses::.cpu.inst               1251                       # number of demand (read+write) misses
system.l2.demand_misses::.cpu.data               8933                       # number of demand (read+write) misses
system.l2.demand_misses::total                  10184                       # number of demand (read+write) misses
system.l2.overall_misses::.cpu.inst              1251                       # number of overall misses
system.l2.overall_misses::.cpu.data              8933                       # number of overall misses
system.l2.overall_misses::total                 10184                       # number of overall misses
system.l2.demand_miss_latency::.cpu.inst     98694000                       # number of demand (read+write) miss cycles
system.l2.demand_miss_latency::.cpu.data    698744500                       # number of demand (read+write) miss cycles
system.l2.demand_miss_latency::total        797438500                       # number of demand (read+write) miss cycles
system.l2.overall_miss_latency::.cpu.inst     98694000                       # number of overall miss cycles
system.l2.overall_miss_latency::.cpu.data    698744500                       # number of overall miss cycles
system.l2.overall_miss_latency::total       797438500                       # number of overall miss cycles
system.l2.demand_accesses::.cpu.inst             5606                       # number of demand (read+write) accesses
system.l2.demand_accesses::.cpu.data             9532                       # number of demand (read+write) accesses
system.l2.demand_accesses::.cpu.icache.prefetcher         3029                       # number of demand (read+write) accesses
system.l2.demand_accesses::total                18167                       # number of demand (read+write) accesses
system.l2.overall_accesses::.cpu.inst            5606                       # number of overall (read+write) accesses
system.l2.overall_accesses::.cpu.data            9532                       # number of overall (read+write) accesses
system.l2.overall_accesses::.cpu.icache.prefetcher         3029                       # number of overall (read+write) accesses
system.l2.overall_accesses::total               18167                       # number of overall (read+write) accesses
system.l2.demand_miss_rate::.cpu.inst        0.223154                       # miss rate for demand accesses
system.l2.demand_miss_rate::.cpu.data        0.937159                       # miss rate for demand accesses
system.l2.demand_miss_rate::total            0.560577                       # miss rate for demand accesses
system.l2.overall_miss_rate::.cpu.inst       0.223154                       # miss rate for overall accesses
system.l2.overall_miss_rate::.cpu.data       0.937159                       # miss rate for overall accesses
system.l2.overall_miss_rate::total           0.560577                       # miss rate for overall accesses
system.l2.demand_avg_miss_latency::.cpu.inst 78892.086331                       # average overall miss latency
system.l2.demand_avg_miss_latency::.cpu.data 78220.586589                       # average overall miss latency
system.l2.demand_avg_miss_latency::total 78303.073449                       # average overall miss latency
system.l2.overall_avg_miss_latency::.cpu.inst 78892.086331                       # average overall miss latency
system.l2.overall_avg_miss_latency::.cpu.data 78220.586589                       # average overall miss latency
system.l2.overall_avg_miss_latency::total 78303.073449                       # average overall miss latency
system.l2.blocked_cycles::no_mshrs                  0                       # number of cycles access was blocked
system.l2.blocked_cycles::no_targets                0                       # number of cycles access was blocked
system.l2.blocked::no_mshrs                         0                       # number of cycles access was blocked
system.l2.blocked::no_targets                       0                       # number of cycles access was blocked
system.l2.avg_blocked_cycles::no_mshrs            nan                       # average number of cycles each access was blocked
system.l2.avg_blocked_cycles::no_targets          nan                       # average number of cycles each access was blocked
system.l2.demand_mshr_misses::.cpu.inst          1251                       # number of demand (read+write) MSHR misses
system.l2.demand_mshr_misses::.cpu.data          8933                       # number of demand (read+write) MSHR misses
system.l2.demand_mshr_misses::total             10184                       # number of demand (read+write) MSHR misses
system.l2.overall_mshr_misses::.cpu.inst         1251                       # number of overall MSHR misses
system.l2.overall_mshr_misses::.cpu.data         8933                       # number of overall MSHR misses
system.l2.overall_mshr_misses::total            10184                       # number of overall MSHR misses
system.l2.demand_mshr_miss_latency::.cpu.inst     86193002                       # number of demand (read+write) MSHR miss cycles
system.l2.demand_mshr_miss_latency::.cpu.data    609413502                       # number of demand (read+write) MSHR miss cycles
system.l2.demand_mshr_miss_latency::total    695606504                       # number of demand (read+write) MSHR miss cycles
system.l2.overall_mshr_miss_latency::.cpu.inst     86193002                       # number of overall MSHR miss cycles
system.l2.overall_mshr_miss_latency::.cpu.data    609413502                       # number of overall MSHR miss cycles
system.l2.overall_mshr_miss_latency::total    695606504                       # number of overall MSHR miss cycles
system.l2.demand_mshr_miss_rate::.cpu.inst     0.223154                       # mshr miss rate for demand accesses
system.l2.demand_mshr_miss_rate::.cpu.data     0.937159                       # mshr miss rate for demand accesses
system.l2.demand_mshr_miss_rate::total       0.560577                       # mshr miss rate for demand accesses
system.l2.overall_mshr_miss_rate::.cpu.inst     0.223154                       # mshr miss rate for overall accesses
system.l2.overall_mshr_miss_rate::.cpu.data     0.937159                       # mshr miss rate for overall accesses
system.l2.overall_mshr_miss_rate::total      0.560577                       # mshr miss rate for overall accesses
system.l2.demand_avg_mshr_miss_latency::.cpu.inst 68899.282174                       # average overall mshr miss latency
system.l2.demand_avg_mshr_miss_latency::.cpu.data 68220.474868                       # average overall mshr miss latency
system.l2.demand_avg_mshr_miss_latency::total 68303.859387                       # average overall mshr miss latency
system.l2.overall_avg_mshr_miss_latency::.cpu.inst 68899.282174                       # average overall mshr miss latency
system.l2.overall_avg_mshr_miss_latency::.cpu.data 68220.474868                       # average overall mshr miss latency
system.l2.overall_avg_mshr_miss_latency::total 68303.859387                       # average overall mshr miss latency
system.l2.replacements                              0                       # number of replacements
system.l2.WritebackDirty_hits::.writebacks        25300                       # number of WritebackDirty hits
system.l2.WritebackDirty_hits::total            25300                       # number of WritebackDirty hits
system.l2.WritebackDirty_accesses::.writebacks        25300                       # number of WritebackDirty accesses(hits+misses)
system.l2.WritebackDirty_accesses::total        25300                       # number of WritebackDirty accesses(hits+misses)
system.l2.WritebackClean_hits::.writebacks         8377                       # number of WritebackClean hits
system.l2.WritebackClean_hits::total             8377                       # number of WritebackClean hits
system.l2.WritebackClean_accesses::.writebacks         8377                       # number of WritebackClean accesses(hits+misses)
system.l2.WritebackClean_accesses::total         8377                       # number of WritebackClean accesses(hits+misses)
system.l2.ReadExReq_hits::.cpu.data               159                       # number of ReadExReq hits
system.l2.ReadExReq_hits::total                   159                       # number of ReadExReq hits
system.l2.ReadExReq_misses::.cpu.data            8321                       # number of ReadExReq misses
system.l2.ReadExReq_misses::total                8321                       # number of ReadExReq misses
system.l2.ReadExReq_miss_latency::.cpu.data    648751000                       # number of ReadExReq miss cycles
system.l2.ReadExReq_miss_latency::total     648751000                       # number of ReadExReq miss cycles
system.l2.ReadExReq_accesses::.cpu.data          8480                       # number of ReadExReq accesses(hits+misses)
system.l2.ReadExReq_accesses::total              8480                       # number of ReadExReq accesses(hits+misses)
system.l2.ReadExReq_miss_rate::.cpu.data     0.981250                       # miss rate for ReadExReq accesses
system.l2.ReadExReq_miss_rate::total         0.981250                       # miss rate for ReadExReq accesses
system.l2.ReadExReq_avg_miss_latency::.cpu.data 77965.508953                       # average ReadExReq miss latency
system.l2.ReadExReq_avg_miss_latency::total 77965.508953                       # average ReadExReq miss latency
system.l2.ReadExReq_mshr_misses::.cpu.data         8321                       # number of ReadExReq MSHR misses
system.l2.ReadExReq_mshr_misses::total           8321                       # number of ReadExReq MSHR misses
system.l2.ReadExReq_mshr_miss_latency::.cpu.data    565540002                       # number of ReadExReq MSHR miss cycles
system.l2.ReadExReq_mshr_miss_latency::total    565540002                       # number of ReadExReq MSHR miss cycles
system.l2.ReadExReq_mshr_miss_rate::.cpu.data     0.981250                       # mshr miss rate for ReadExReq accesses
system.l2.ReadExReq_mshr_miss_rate::total     0.981250                       # mshr miss rate for ReadExReq accesses
system.l2.ReadExReq_avg_mshr_miss_latency::.cpu.data 67965.389016                       # average ReadExReq mshr miss latency
system.l2.ReadExReq_avg_mshr_miss_latency::total 67965.389016                       # average ReadExReq mshr miss latency
system.l2.ReadCleanReq_hits::.cpu.inst           4355                       # number of ReadCleanReq hits
system.l2.ReadCleanReq_hits::.cpu.icache.prefetcher         3029                       # number of ReadCleanReq hits
system.l2.ReadCleanReq_hits::total               7384                       # number of ReadCleanReq hits
system.l2.ReadCleanReq_misses::.cpu.inst         1251                       # number of ReadCleanReq misses
system.l2.ReadCleanReq_misses::total             1251                       # number of ReadCleanReq misses
system.l2.ReadCleanReq_miss_latency::.cpu.inst     98694000                       # number of ReadCleanReq miss cycles
system.l2.ReadCleanReq_miss_latency::total     98694000                       # number of ReadCleanReq miss cycles
system.l2.ReadCleanReq_accesses::.cpu.inst         5606                       # number of ReadCleanReq accesses(hits+misses)
system.l2.ReadCleanReq_accesses::.cpu.icache.prefetcher         3029                       # number of ReadCleanReq accesses(hits+misses)
system.l2.ReadCleanReq_accesses::total           8635                       # number of ReadCleanReq accesses(hits+misses)
[...]
system.cpu.dcache.demand_accesses::.cpu.data       917773                       # number of demand (read+write) accesses
system.cpu.dcache.demand_accesses::total       917773                       # number of demand (read+write) accesses
system.cpu.dcache.overall_accesses::.cpu.data       917830                       # number of overall (read+write) accesses
system.cpu.dcache.overall_accesses::total       917830                       # number of overall (read+write) accesses
system.cpu.dcache.demand_miss_rate::.cpu.data     0.057523                       # miss rate for demand accesses
system.cpu.dcache.demand_miss_rate::total     0.057523                       # miss rate for demand accesses
system.cpu.dcache.overall_miss_rate::.cpu.data     0.057525                       # miss rate for overall accesses
system.cpu.dcache.overall_miss_rate::total     0.057525                       # miss rate for overall accesses
system.cpu.dcache.demand_avg_miss_latency::.cpu.data 56570.562707                       # average overall miss latency
system.cpu.dcache.demand_avg_miss_latency::total 56570.562707                       # average overall miss latency
system.cpu.dcache.overall_avg_miss_latency::.cpu.data 56565.205443                       # average overall miss latency
system.cpu.dcache.overall_avg_miss_latency::total 56565.205443                       # average overall miss latency
system.cpu.dcache.blocked_cycles::no_mshrs         8906                       # number of cycles access was blocked
system.cpu.dcache.blocked_cycles::no_targets            0                       # number of cycles access was blocked
system.cpu.dcache.blocked::no_mshrs               528                       # number of cycles access was blocked
system.cpu.dcache.blocked::no_targets               0                       # number of cycles access was blocked
system.cpu.dcache.avg_blocked_cycles::no_mshrs    16.867424                       # average number of cycles each access was blocked
system.cpu.dcache.avg_blocked_cycles::no_targets          nan                       # average number of cycles each access was blocked
system.cpu.dcache.writebacks::.writebacks        25300                       # number of writebacks
system.cpu.dcache.writebacks::total             25300                       # number of writebacks
system.cpu.dcache.demand_mshr_hits::.cpu.data        26042                       # number of demand (read+write) MSHR hits
system.cpu.dcache.demand_mshr_hits::total        26042                       # number of demand (read+write) MSHR hits
system.cpu.dcache.overall_mshr_hits::.cpu.data        26042                       # number of overall MSHR hits
system.cpu.dcache.overall_mshr_hits::total        26042                       # number of overall MSHR hits
system.cpu.dcache.demand_mshr_misses::.cpu.data        26751                       # number of demand (read+write) MSHR misses
system.cpu.dcache.demand_mshr_misses::total        26751                       # number of demand (read+write) MSHR misses
system.cpu.dcache.overall_mshr_misses::.cpu.data        26753                       # number of overall MSHR misses
system.cpu.dcache.overall_mshr_misses::total        26753                       # number of overall MSHR misses
system.cpu.dcache.demand_mshr_miss_latency::.cpu.data   1417973726                       # number of demand (read+write) MSHR miss cycles
system.cpu.dcache.demand_mshr_miss_latency::total   1417973726                       # number of demand (read+write) MSHR miss cycles
system.cpu.dcache.overall_mshr_miss_latency::.cpu.data   1418158226                       # number of overall MSHR miss cycles
system.cpu.dcache.overall_mshr_miss_latency::total   1418158226                       # number of overall MSHR miss cycles
system.cpu.dcache.demand_mshr_miss_rate::.cpu.data     0.029148                       # mshr miss rate for demand accesses
system.cpu.dcache.demand_mshr_miss_rate::total     0.029148                       # mshr miss rate for demand accesses
system.cpu.dcache.overall_mshr_miss_rate::.cpu.data     0.029148                       # mshr miss rate for overall accesses
system.cpu.dcache.overall_mshr_miss_rate::total     0.029148                       # mshr miss rate for overall accesses
system.cpu.dcache.demand_avg_mshr_miss_latency::.cpu.data 53006.382042                       # average overall mshr miss latency
system.cpu.dcache.demand_avg_mshr_miss_latency::total 53006.382042                       # average overall mshr miss latency
system.cpu.dcache.overall_avg_mshr_miss_latency::.cpu.data 53009.315815                       # average overall mshr miss latency
system.cpu.dcache.overall_avg_mshr_miss_latency::total 53009.315815                       # average overall mshr miss latency
system.cpu.dcache.replacements                  25732                       # number of replacements
system.cpu.dcache.ReadReq_hits::.cpu.data       480321                       # number of ReadReq hits
system.cpu.dcache.ReadReq_hits::total          480321                       # number of ReadReq hits
system.cpu.dcache.ReadReq_misses::.cpu.data         2927                       # number of ReadReq misses
system.cpu.dcache.ReadReq_misses::total          2927                       # number of ReadReq misses
system.cpu.dcache.ReadReq_miss_latency::.cpu.data    171532000                       # number of ReadReq miss cycles
system.cpu.dcache.ReadReq_miss_latency::total    171532000                       # number of ReadReq miss cycles
system.cpu.dcache.ReadReq_accesses::.cpu.data       483248                       # number of ReadReq accesses(hits+misses)
system.cpu.dcache.ReadReq_accesses::total       483248                       # number of ReadReq accesses(hits+misses)
system.cpu.dcache.ReadReq_miss_rate::.cpu.data     0.006057                       # miss rate for ReadReq accesses
system.cpu.dcache.ReadReq_miss_rate::total     0.006057                       # miss rate for ReadReq accesses
system.cpu.dcache.ReadReq_avg_miss_latency::.cpu.data 58603.348138                       # average ReadReq miss latency
system.cpu.dcache.ReadReq_avg_miss_latency::total 58603.348138                       # average ReadReq miss latency
system.cpu.dcache.ReadReq_mshr_hits::.cpu.data         1879                       # number of ReadReq MSHR hits
system.cpu.dcache.ReadReq_mshr_hits::total         1879                       # number of ReadReq MSHR hits
system.cpu.dcache.ReadReq_mshr_misses::.cpu.data         1048                       # number of ReadReq MSHR misses
system.cpu.dcache.ReadReq_mshr_misses::total         1048                       # number of ReadReq MSHR misses
system.cpu.dcache.ReadReq_mshr_miss_latency::.cpu.data     56230500                       # number of ReadReq MSHR miss cycles
system.cpu.dcache.ReadReq_mshr_miss_latency::total     56230500                       # number of ReadReq MSHR miss cycles
system.cpu.dcache.ReadReq_mshr_miss_rate::.cpu.data     0.002169                       # mshr miss rate for ReadReq accesses
system.cpu.dcache.ReadReq_mshr_miss_rate::total     0.002169                       # mshr miss rate for ReadReq accesses
system.cpu.dcache.ReadReq_avg_mshr_miss_latency::.cpu.data 53655.057252                       # average ReadReq mshr miss latency
system.cpu.dcache.ReadReq_avg_mshr_miss_latency::total 53655.057252                       # average ReadReq mshr miss latency
system.cpu.dcache.WriteReq_hits::.cpu.data       384371                       # number of WriteReq hits
system.cpu.dcache.WriteReq_hits::total         384371                       # number of WriteReq hits
system.cpu.dcache.WriteReq_misses::.cpu.data        33236                       # number of WriteReq misses
system.cpu.dcache.WriteReq_misses::total        33236                       # number of WriteReq misses
system.cpu.dcache.WriteReq_miss_latency::.cpu.data   2118185486                       # number of WriteReq miss cycles
system.cpu.dcache.WriteReq_miss_latency::total   2118185486                       # number of WriteReq miss cycles
system.cpu.dcache.WriteReq_accesses::.cpu.data       417607                       # number of WriteReq accesses(hits+misses)
system.cpu.dcache.WriteReq_accesses::total       417607                       # number of WriteReq accesses(hits+misses)
system.cpu.dcache.WriteReq_miss_rate::.cpu.data     0.079587                       # miss rate for WriteReq accesses
system.cpu.dcache.WriteReq_miss_rate::total     0.079587                       # miss rate for WriteReq accesses
system.cpu.dcache.WriteReq_avg_miss_latency::.cpu.data 63731.661030                       # average WriteReq miss latency
system.cpu.dcache.WriteReq_avg_miss_latency::total 63731.661030                       # average WriteReq miss latency
system.cpu.dcache.WriteReq_mshr_hits::.cpu.data        24163                       # number of WriteReq MSHR hits
system.cpu.dcache.WriteReq_mshr_hits::total        24163                       # number of WriteReq MSHR hits
system.cpu.dcache.WriteReq_mshr_misses::.cpu.data         9073                       # number of WriteReq MSHR misses
system.cpu.dcache.WriteReq_mshr_misses::total         9073                       # number of WriteReq MSHR misses
system.cpu.dcache.WriteReq_mshr_miss_latency::.cpu.data    681560995                       # number of WriteReq MSHR miss cycles
system.cpu.dcache.WriteReq_mshr_miss_latency::total    681560995                       # number of WriteReq MSHR miss cycles
system.cpu.dcache.WriteReq_mshr_miss_rate::.cpu.data     0.021726                       # mshr miss rate for WriteReq accesses
system.cpu.dcache.WriteReq_mshr_miss_rate::total     0.021726                       # mshr miss rate for WriteReq accesses
system.cpu.dcache.WriteReq_avg_mshr_miss_latency::.cpu.data 75119.695250                       # average WriteReq mshr miss latency
system.cpu.dcache.WriteReq_avg_mshr_miss_latency::total 75119.695250                       # average WriteReq mshr miss latency
system.cpu.dcache.SoftPFReq_hits::.cpu.data           52                       # number of SoftPFReq hits
system.cpu.dcache.SoftPFReq_hits::total            52                       # number of SoftPFReq hits
system.cpu.dcache.SoftPFReq_misses::.cpu.data            5                       # number of SoftPFReq misses
system.cpu.dcache.SoftPFReq_misses::total            5                       # number of SoftPFReq misses
system.cpu.dcache.SoftPFReq_accesses::.cpu.data           57                       # number of SoftPFReq accesses(hits+misses)
system.cpu.dcache.SoftPFReq_accesses::total           57                       # number of SoftPFReq accesses(hits+misses)
system.cpu.dcache.SoftPFReq_miss_rate::.cpu.data     0.087719                       # miss rate for SoftPFReq accesses
system.cpu.dcache.SoftPFReq_miss_rate::total     0.087719                       # miss rate for SoftPFReq accesses
system.cpu.dcache.SoftPFReq_mshr_misses::.cpu.data            2                       # number of SoftPFReq MSHR misses
system.cpu.dcache.SoftPFReq_mshr_misses::total            2                       # number of SoftPFReq MSHR misses
system.cpu.dcache.SoftPFReq_mshr_miss_latency::.cpu.data       184500                       # number of SoftPFReq MSHR miss cycles
system.cpu.dcache.SoftPFReq_mshr_miss_latency::total       184500                       # number of SoftPFReq MSHR miss cycles
system.cpu.dcache.SoftPFReq_mshr_miss_rate::.cpu.data     0.035088                       # mshr miss rate for SoftPFReq accesses
system.cpu.dcache.SoftPFReq_mshr_miss_rate::total     0.035088                       # mshr miss rate for SoftPFReq accesses
system.cpu.dcache.SoftPFReq_avg_mshr_miss_latency::.cpu.data        92250                       # average SoftPFReq mshr miss latency
system.cpu.dcache.SoftPFReq_avg_mshr_miss_latency::total        92250                       # average SoftPFReq mshr miss latency
system.cpu.dcache.WriteLineReq_hits::.cpu.data          288                       # number of WriteLineReq hits
system.cpu.dcache.WriteLineReq_hits::total          288                       # number of WriteLineReq hits
system.cpu.dcache.WriteLineReq_misses::.cpu.data        16630                       # number of WriteLineReq misses
system.cpu.dcache.WriteLineReq_misses::total        16630                       # number of WriteLineReq misses
system.cpu.dcache.WriteLineReq_miss_latency::.cpu.data    696812231                       # number of WriteLineReq miss cycles
system.cpu.dcache.WriteLineReq_miss_latency::total    696812231                       # number of WriteLineReq miss cycles
system.cpu.dcache.WriteLineReq_accesses::.cpu.data        16918                       # number of WriteLineReq accesses(hits+misses)
system.cpu.dcache.WriteLineReq_accesses::total        16918                       # number of WriteLineReq accesses(hits+misses)
system.cpu.dcache.WriteLineReq_miss_rate::.cpu.data     0.982977                       # miss rate for WriteLineReq accesses
system.cpu.dcache.WriteLineReq_miss_rate::total     0.982977                       # miss rate for WriteLineReq accesses
system.cpu.dcache.WriteLineReq_avg_miss_latency::.cpu.data 41900.915875                       # average WriteLineReq miss latency
system.cpu.dcache.WriteLineReq_avg_miss_latency::total 41900.915875                       # average WriteLineReq miss latency
system.cpu.dcache.WriteLineReq_mshr_misses::.cpu.data        16630                       # number of WriteLineReq MSHR misses
system.cpu.dcache.WriteLineReq_mshr_misses::total        16630                       # number of WriteLineReq MSHR misses
system.cpu.dcache.WriteLineReq_mshr_miss_latency::.cpu.data    680182231                       # number of WriteLineReq MSHR miss cycles
system.cpu.dcache.WriteLineReq_mshr_miss_latency::total    680182231                       # number of WriteLineReq MSHR miss cycles
system.cpu.dcache.WriteLineReq_mshr_miss_rate::.cpu.data     0.982977                       # mshr miss rate for WriteLineReq accesses
system.cpu.dcache.WriteLineReq_mshr_miss_rate::total     0.982977                       # mshr miss rate for WriteLineReq accesses
system.cpu.dcache.WriteLineReq_avg_mshr_miss_latency::.cpu.data 40900.915875                       # average WriteLineReq mshr miss latency
system.cpu.dcache.WriteLineReq_avg_mshr_miss_latency::total 40900.915875                       # average WriteLineReq mshr miss latency
system.cpu.dcache.LoadLockedReq_hits::.cpu.data          297                       # number of LoadLockedReq hits
system.cpu.dcache.LoadLockedReq_hits::total          297                       # number of LoadLockedReq hits
system.cpu.dcache.LoadLockedReq_misses::.cpu.data            5                       # number of LoadLockedReq misses
system.cpu.dcache.LoadLockedReq_misses::total            5                       # number of LoadLockedReq misses
system.cpu.dcache.LoadLockedReq_miss_latency::.cpu.data       213500                       # number of LoadLockedReq miss cycles
system.cpu.dcache.LoadLockedReq_miss_latency::total       213500                       # number of LoadLockedReq miss cycles
system.cpu.dcache.LoadLockedReq_accesses::.cpu.data          302                       # number of LoadLockedReq accesses(hits+misses)
system.cpu.dcache.LoadLockedReq_accesses::total          302                       # number of LoadLockedReq accesses(hits+misses)
system.cpu.dcache.LoadLockedReq_miss_rate::.cpu.data     0.016556                       # miss rate for LoadLockedReq accesses
system.cpu.dcache.LoadLockedReq_miss_rate::total     0.016556                       # miss rate for LoadLockedReq accesses
system.cpu.dcache.LoadLockedReq_avg_miss_latency::.cpu.data        42700                       # average LoadLockedReq miss latency
system.cpu.dcache.LoadLockedReq_avg_miss_latency::total        42700                       # average LoadLockedReq miss latency
system.cpu.dcache.LoadLockedReq_mshr_hits::.cpu.data            2                       # number of LoadLockedReq MSHR hits
system.cpu.dcache.LoadLockedReq_mshr_hits::total            2                       # number of LoadLockedReq MSHR hits
system.cpu.dcache.LoadLockedReq_mshr_misses::.cpu.data            3                       # number of LoadLockedReq MSHR misses
system.cpu.dcache.LoadLockedReq_mshr_misses::total            3                       # number of LoadLockedReq MSHR misses
system.cpu.dcache.LoadLockedReq_mshr_miss_latency::.cpu.data       123500                       # number of LoadLockedReq MSHR miss cycles
system.cpu.dcache.LoadLockedReq_mshr_miss_latency::total       123500                       # number of LoadLockedReq MSHR miss cycles
system.cpu.dcache.LoadLockedReq_mshr_miss_rate::.cpu.data     0.009934                       # mshr miss rate for LoadLockedReq accesses
system.cpu.dcache.LoadLockedReq_mshr_miss_rate::total     0.009934                       # mshr miss rate for LoadLockedReq accesses
system.cpu.dcache.LoadLockedReq_avg_mshr_miss_latency::.cpu.data 41166.666667                       # average LoadLockedReq mshr miss latency
system.cpu.dcache.LoadLockedReq_avg_mshr_miss_latency::total 41166.666667                       # average LoadLockedReq mshr miss latency
system.cpu.dcache.StoreCondReq_hits::.cpu.data          278                       # number of StoreCondReq hits
system.cpu.dcache.StoreCondReq_hits::total          278                       # number of StoreCondReq hits
system.cpu.dcache.StoreCondReq_accesses::.cpu.data          278                       # number of StoreCondReq accesses(hits+misses)
system.cpu.dcache.StoreCondReq_accesses::total          278                       # number of StoreCondReq accesses(hits+misses)
system.cpu.dcache.power_state.pwrStateResidencyTicks::UNDEFINED   1326149500                       # Cumulative time (in ticks) in various power states
system.cpu.dcache.tags.tagsinuse           970.986281                       # Cycle average of tags in use
system.cpu.dcache.tags.total_refs              892363                       # Total number of references to valid blocks.
system.cpu.dcache.tags.sampled_refs             26756                       # Sample count of references to valid blocks.
system.cpu.dcache.tags.avg_refs             33.351884                       # Average number of references to valid blocks.
system.cpu.dcache.tags.warmup_cycle            176500                       # Cycle when the warmup percentage was hit.
system.cpu.dcache.tags.occ_blocks::.cpu.data   970.986281                       # Average occupied blocks per requestor
system.cpu.dcache.tags.occ_percent::.cpu.data     0.948229                       # Average percentage of cache occupancy
system.cpu.dcache.tags.occ_percent::total     0.948229                       # Average percentage of cache occupancy
system.cpu.dcache.tags.occ_task_id_blocks::1024         1024                       # Occupied blocks per task id
system.cpu.dcache.tags.age_task_id_blocks_1024::0           78                       # Occupied blocks per task id
system.cpu.dcache.tags.age_task_id_blocks_1024::1          606                       # Occupied blocks per task id
system.cpu.dcache.tags.age_task_id_blocks_1024::2          340                       # Occupied blocks per task id
system.cpu.dcache.tags.occ_task_id_percent::1024            1                       # Percentage of cache occupancy per task id
system.cpu.dcache.tags.tag_accesses           1863576                       # Number of tag accesses
system.cpu.dcache.tags.data_accesses          1863576                       # Number of data accesses
system.cpu.dcache.tags.power_state.pwrStateResidencyTicks::UNDEFINED   1326149500                       # Cumulative time (in ticks) in various power states
system.cpu.power_state.pwrStateResidencyTicks::ON   1326149500                       # Cumulative time (in ticks) in various power states

---------- End Simulation Statistics   ----------
