
---------- Begin Simulation Statistics ----------
final_tick                                 1167478500                       # Number of ticks from beginning of simulation (restored from checkpoints and never reset)
host_inst_rate                                 275722                       # Simulator instruction rate (inst/s)
host_mem_usage                                 867096                       # Number of bytes of host memory used
host_op_rate                                   290943                       # Simulator op (including micro ops) rate (op/s)
host_seconds                                    15.34                       # Real time elapsed on the host
host_tick_rate                               76127239                       # Simulator tick rate (ticks/s)
sim_freq                                 1000000000000                       # Frequency of simulated ticks
sim_insts                                     4228395                       # Number of instructions simulated
sim_ops                                       4461863                       # Number of ops (including micro ops) simulated
sim_seconds                                  0.001167                       # Number of seconds simulated
sim_ticks                                  1167478500                       # Number of ticks simulated
system.cpu.branchPred.BTBCorrect                    0                       # Number of correct BTB predictions (this stat may not work properly.
system.cpu.branchPred.BTBHitPct             98.946331                       # BTB Hit Percentage
system.cpu.branchPred.BTBHits                  332335                       # Number of BTB hits
system.cpu.branchPred.BTBLookups               335874                       # Number of BTB lookups
system.cpu.branchPred.RASInCorrect                  2                       # Number of incorrect RAS predictions.
system.cpu.branchPred.condIncorrect              4535                       # Number of conditional branches incorrect
system.cpu.branchPred.condPredicted            375635                       # Number of conditional branches predicted
system.cpu.branchPred.indirectHits               1208                       # Number of indirect target hits.
system.cpu.branchPred.indirectLookups            2138                       # Number of indirect predictor lookups.
system.cpu.branchPred.indirectMisses              930                       # Number of indirect misses.
system.cpu.branchPred.lookups                  513659                       # Number of BP lookups
system.cpu.branchPred.usedRAS                   64627                       # Number of times the RAS was used to get a target.
system.cpu.branchPredindirectMispredicted          312                       # Number of mispredicted indirect branches.
system.cpu.cc_regfile_reads                    886435                       # number of cc regfile reads
system.cpu.cc_regfile_writes                   883496                       # number of cc regfile writes
system.cpu.commit.amos                              0                       # Number of atomic instructions committed
system.cpu.commit.branchMispredicts              3641                       # The number of times a branch was mispredicted
system.cpu.commit.branches                     487016                       # Number of branches committed
system.cpu.commit.bw_lim_events                365798                       # number cycles where commit BW limit reached
system.cpu.commit.commitNonSpecStalls             313                       # The number of times commit has been forced to stall to communicate backwards
system.cpu.commit.commitSquashedInsts           94429                       # The number of squashed insts skipped by commit
system.cpu.commit.committedInsts              4228952                       # Number of instructions committed
system.cpu.commit.committedOps                4462420                       # Number of ops (including micro ops) committed
system.cpu.commit.committed_per_cycle::samples      2181296                       # Number of insts commited each cycle
system.cpu.commit.committed_per_cycle::mean     2.045765                       # Number of insts commited each cycle
system.cpu.commit.committed_per_cycle::stdev     2.995494                       # Number of insts commited each cycle
system.cpu.commit.committed_per_cycle::underflows            0      0.00%      0.00% # Number of insts commited each cycle
system.cpu.commit.committed_per_cycle::0      1119939     51.34%     51.34% # Number of insts commited each cycle
system.cpu.commit.committed_per_cycle::1       295375     13.54%     64.88% # Number of insts commited each cycle
system.cpu.commit.committed_per_cycle::2       265977     12.19%     77.08% # Number of insts commited each cycle
system.cpu.commit.committed_per_cycle::3        16339      0.75%     77.83% # Number of insts commited each cycle
system.cpu.commit.committed_per_cycle::4         8603      0.39%     78.22% # Number of insts commited each cycle
system.cpu.commit.committed_per_cycle::5        53627      2.46%     80.68% # Number of insts commited each cycle
system.cpu.commit.committed_per_cycle::6        32323      1.48%     82.16% # Number of insts commited each cycle
system.cpu.commit.committed_per_cycle::7        23315      1.07%     83.23% # Number of insts commited each cycle
system.cpu.commit.committed_per_cycle::8       365798     16.77%    100.00% # Number of insts commited each cycle
system.cpu.commit.committed_per_cycle::overflows            0      0.00%    100.00% # Number of insts commited each cycle
system.cpu.commit.committed_per_cycle::min_value            0                       # Number of insts commited each cycle
system.cpu.commit.committed_per_cycle::max_value            8                       # Number of insts commited each cycle
system.cpu.commit.committed_per_cycle::total      2181296                       # Number of insts commited each cycle
system.cpu.commit.fp_insts                          0                       # Number of committed floating point instructions.
system.cpu.commit.function_calls                63038                       # Number of function calls committed.
system.cpu.commit.int_insts                   2716588                       # Number of committed integer instructions.
system.cpu.commit.loads                        501197                       # Number of loads committed
system.cpu.commit.membars                         278                       # Number of memory barriers committed
system.cpu.commit.op_class_0::No_OpClass          165      0.00%      0.00% # Class of committed instruction
system.cpu.commit.op_class_0::IntAlu          2086122     46.75%     46.75% # Class of committed instruction
system.cpu.commit.op_class_0::IntMult            3338      0.07%     46.83% # Class of committed instruction
system.cpu.commit.op_class_0::IntDiv              459      0.01%     46.84% # Class of committed instruction
system.cpu.commit.op_class_0::FloatAdd         334068      7.49%     54.32% # Class of committed instruction
system.cpu.commit.op_class_0::FloatCmp              4      0.00%     54.32% # Class of committed instruction
system.cpu.commit.op_class_0::FloatCvt          76968      1.72%     56.05% # Class of committed instruction
system.cpu.commit.op_class_0::FloatMult        257002      5.76%     61.81% # Class of committed instruction
system.cpu.commit.op_class_0::FloatMultAcc       811455     18.18%     79.99% # Class of committed instruction
system.cpu.commit.op_class_0::FloatDiv              3      0.00%     79.99% # Class of committed instruction
system.cpu.commit.op_class_0::FloatMisc        176468      3.95%     83.95% # Class of committed instruction
system.cpu.commit.op_class_0::FloatSqrt             0      0.00%     83.95% # Class of committed instruction
system.cpu.commit.op_class_0::SimdAdd             385      0.01%     83.96% # Class of committed instruction
system.cpu.commit.op_class_0::SimdAddAcc            0      0.00%     83.96% # Class of committed instruction
system.cpu.commit.op_class_0::SimdAlu             504      0.01%     83.97% # Class of committed instruction
system.cpu.commit.op_class_0::SimdCmp             460      0.01%     83.98% # Class of committed instruction
system.cpu.commit.op_class_0::SimdCvt               0      0.00%     83.98% # Class of committed instruction
system.cpu.commit.op_class_0::SimdMisc            477      0.01%     83.99% # Class of committed instruction
system.cpu.commit.op_class_0::SimdMult              0      0.00%     83.99% # Class of committed instruction
system.cpu.commit.op_class_0::SimdMultAcc            0      0.00%     83.99% # Class of committed instruction
system.cpu.commit.op_class_0::SimdShift             0      0.00%     83.99% # Class of committed instruction
system.cpu.commit.op_class_0::SimdShiftAcc            0      0.00%     83.99% # Class of committed instruction
system.cpu.commit.op_class_0::SimdDiv               0      0.00%     83.99% # Class of committed instruction
system.cpu.commit.op_class_0::SimdSqrt              0      0.00%     83.99% # Class of committed instruction
system.cpu.commit.op_class_0::SimdFloatAdd            0      0.00%     83.99% # Class of committed instruction
system.cpu.commit.op_class_0::SimdFloatAlu            0      0.00%     83.99% # Class of committed instruction
system.cpu.commit.op_class_0::SimdFloatCmp            0      0.00%     83.99% # Class of committed instruction
system.cpu.commit.op_class_0::SimdFloatCvt            0      0.00%     83.99% # Class of committed instruction
system.cpu.commit.op_class_0::SimdFloatDiv            0      0.00%     83.99% # Class of committed instruction
system.cpu.commit.op_class_0::SimdFloatMisc            0      0.00%     83.99% # Class of committed instruction
system.cpu.commit.op_class_0::SimdFloatMult            0      0.00%     83.99% # Class of committed instruction
system.cpu.commit.op_class_0::SimdFloatMultAcc            0      0.00%     83.99% # Class of committed instruction
system.cpu.commit.op_class_0::SimdFloatSqrt            0      0.00%     83.99% # Class of committed instruction
system.cpu.commit.op_class_0::SimdReduceAdd            0      0.00%     83.99% # Class of committed instruction
system.cpu.commit.op_class_0::SimdReduceAlu            0      0.00%     83.99% # Class of committed instruction
system.cpu.commit.op_class_0::SimdReduceCmp            0      0.00%     83.99% # Class of committed instruction
system.cpu.commit.op_class_0::SimdFloatReduceAdd            0      0.00%     83.99% # Class of committed instruction
system.cpu.commit.op_class_0::SimdFloatReduceCmp            0      0.00%     83.99% # Class of committed instruction
system.cpu.commit.op_class_0::SimdAes               0      0.00%     83.99% # Class of committed instruction
system.cpu.commit.op_class_0::SimdAesMix            0      0.00%     83.99% # Class of committed instruction
system.cpu.commit.op_class_0::SimdSha1Hash            0      0.00%     83.99% # Class of committed instruction
system.cpu.commit.op_class_0::SimdSha1Hash2            0      0.00%     83.99% # Class of committed instruction
system.cpu.commit.op_class_0::SimdSha256Hash            0      0.00%     83.99% # Class of committed instruction
system.cpu.commit.op_class_0::SimdSha256Hash2            0      0.00%     83.99% # Class of committed instruction
system.cpu.commit.op_class_0::SimdShaSigma2            0      0.00%     83.99% # Class of committed instruction
system.cpu.commit.op_class_0::SimdShaSigma3            0      0.00%     83.99% # Class of committed instruction
system.cpu.commit.op_class_0::SimdPredAlu            0      0.00%     83.99% # Class of committed instruction
system.cpu.commit.op_class_0::MemRead          501197     11.23%     95.22% # Class of committed instruction
system.cpu.commit.op_class_0::MemWrite         213345      4.78%    100.00% # Class of committed instruction
system.cpu.commit.op_class_0::FloatMemRead            0      0.00%    100.00% # Class of committed instruction
system.cpu.commit.op_class_0::FloatMemWrite            0      0.00%    100.00% # Class of committed instruction
system.cpu.commit.op_class_0::IprAccess             0      0.00%    100.00% # Class of committed instruction
system.cpu.commit.op_class_0::InstPrefetch            0      0.00%    100.00% # Class of committed instruction
system.cpu.commit.op_class_0::total           4462420                       # Class of committed instruction
system.cpu.commit.refs                         714542                       # Number of memory references committed
system.cpu.commit.swp_count                         0                       # Number of s/w prefetches committed
system.cpu.commit.vec_insts                   2111732                       # Number of committed Vector instructions.
system.cpu.committedInsts                     4228395                       # Number of Instructions Simulated
system.cpu.committedOps                       4461863                       # Number of Ops (including micro ops) Simulated
system.cpu.cpi                               0.552209                       # CPI: Cycles Per Instruction
system.cpu.cpi_total                         0.552209                       # CPI: Total CPI of All Threads
system.cpu.decode.BlockedCycles                348245                       # Number of cycles decode is blocked
system.cpu.decode.BranchMispred                   909                       # Number of times decode detected a branch misprediction
system.cpu.decode.BranchResolved               332182                       # Number of times decode resolved a branch
system.cpu.decode.DecodedInsts                4584589                       # Number of instructions handled by decode
system.cpu.decode.IdleCycles                   872721                       # Number of cycles decode is idle
system.cpu.decode.RunCycles                    951780                       # Number of cycles decode is running
system.cpu.decode.SquashCycles                   4017                       # Number of cycles decode is squashing
system.cpu.decode.SquashedInsts                  3194                       # Number of squashed instructions handled by decode
system.cpu.decode.UnblockCycles                 18767                       # Number of cycles decode is unblocking
system.cpu.dtb.accesses                             0                       # DTB accesses
system.cpu.dtb.align_faults                         0                       # Number of TLB faults due to alignment restrictions
system.cpu.dtb.domain_faults                        0                       # Number of TLB faults due to domain restrictions
system.cpu.dtb.flush_entries                        0                       # Number of entries that have been flushed from TLB
system.cpu.dtb.flush_tlb                            0                       # Number of times complete TLB was flushed
system.cpu.dtb.flush_tlb_asid                       0                       # Number of times TLB was flushed by ASID
system.cpu.dtb.flush_tlb_mva                        0                       # Number of times TLB was flushed by MVA
system.cpu.dtb.flush_tlb_mva_asid                   0                       # Number of times TLB was flushed by MVA & ASID
system.cpu.dtb.hits                                 0                       # DTB hits
system.cpu.dtb.inst_accesses                        0                       # ITB inst accesses
system.cpu.dtb.inst_hits                            0                       # ITB inst hits
system.cpu.dtb.inst_misses                          0                       # ITB inst misses
system.cpu.dtb.misses                               0                       # DTB misses
system.cpu.dtb.perms_faults                         0                       # Number of TLB faults due to permissions restrictions
system.cpu.dtb.prefetch_faults                      0                       # Number of TLB faults due to prefetch
system.cpu.dtb.read_accesses                        0                       # DTB read accesses
system.cpu.dtb.read_hits                            0                       # DTB read hits
system.cpu.dtb.read_misses                          0                       # DTB read misses
system.cpu.dtb.stage2_mmu.stage2_tlb.accesses            0                       # DTB accesses
system.cpu.dtb.stage2_mmu.stage2_tlb.align_faults            0                       # Number of TLB faults due to alignment restrictions
system.cpu.dtb.stage2_mmu.stage2_tlb.domain_faults            0                       # Number of TLB faults due to domain restrictions
system.cpu.dtb.stage2_mmu.stage2_tlb.flush_entries            0                       # Number of entries that have been flushed from TLB
system.cpu.dtb.stage2_mmu.stage2_tlb.flush_tlb            0                       # Number of times complete TLB was flushed
system.cpu.dtb.stage2_mmu.stage2_tlb.flush_tlb_asid            0                       # Number of times TLB was flushed by ASID
system.cpu.dtb.stage2_mmu.stage2_tlb.flush_tlb_mva            0                       # Number of times TLB was flushed by MVA
system.cpu.dtb.stage2_mmu.stage2_tlb.flush_tlb_mva_asid            0                       # Number of times TLB was flushed by MVA & ASID
system.cpu.dtb.stage2_mmu.stage2_tlb.hits            0                       # DTB hits
system.cpu.dtb.stage2_mmu.stage2_tlb.inst_accesses            0                       # ITB inst accesses
system.cpu.dtb.stage2_mmu.stage2_tlb.inst_hits            0                       # ITB inst hits
system.cpu.dtb.stage2_mmu.stage2_tlb.inst_misses            0                       # ITB inst misses
system.cpu.dtb.stage2_mmu.stage2_tlb.misses            0                       # DTB misses
system.cpu.dtb.stage2_mmu.stage2_tlb.perms_faults            0                       # Number of TLB faults due to permissions restrictions
system.cpu.dtb.stage2_mmu.stage2_tlb.prefetch_faults            0                       # Number of TLB faults due to prefetch
system.cpu.dtb.stage2_mmu.stage2_tlb.read_accesses            0                       # DTB read accesses
system.cpu.dtb.stage2_mmu.stage2_tlb.read_hits            0                       # DTB read hits
system.cpu.dtb.stage2_mmu.stage2_tlb.read_misses            0                       # DTB read misses
system.cpu.dtb.stage2_mmu.stage2_tlb.walker.walkRequestOrigin_Requested::Data            0                       # Table walker requests started/completed, data/inst
system.cpu.dtb.stage2_mmu.stage2_tlb.walker.walkRequestOrigin_Requested::Inst            0                       # Table walker requests started/completed, data/inst
system.cpu.dtb.stage2_mmu.stage2_tlb.walker.walkRequestOrigin_Requested::total            0                       # Table walker requests started/completed, data/inst
system.cpu.dtb.stage2_mmu.stage2_tlb.walker.walkRequestOrigin_Completed::Data            0                       # Table walker requests started/completed, data/inst
system.cpu.dtb.stage2_mmu.stage2_tlb.walker.walkRequestOrigin_Completed::Inst            0                       # Table walker requests started/completed, data/inst
system.cpu.dtb.stage2_mmu.stage2_tlb.walker.walkRequestOrigin_Completed::total            0                       # Table walker requests started/completed, data/inst
system.cpu.dtb.stage2_mmu.stage2_tlb.walker.walkRequestOrigin::total            0                       # Table walker requests started/completed, data/inst
system.cpu.dtb.stage2_mmu.stage2_tlb.walker.walks            0                       # Table walker walks requested
system.cpu.dtb.stage2_mmu.stage2_tlb.write_accesses            0                       # DTB write accesses
system.cpu.dtb.stage2_mmu.stage2_tlb.write_hits            0                       # DTB write hits
system.cpu.dtb.stage2_mmu.stage2_tlb.write_misses            0                       # DTB write misses
system.cpu.dtb.walker.walkRequestOrigin_Requested::Data            0                       # Table walker requests started/completed, data/inst
system.cpu.dtb.walker.walkRequestOrigin_Requested::Inst            0                       # Table walker requests started/completed, data/inst
system.cpu.dtb.walker.walkRequestOrigin_Requested::total            0                       # Table walker requests started/completed, data/inst
system.cpu.dtb.walker.walkRequestOrigin_Completed::Data            0                       # Table walker requests started/completed, data/inst
system.cpu.dtb.walker.walkRequestOrigin_Completed::Inst            0                       # Table walker requests started/completed, data/inst
system.cpu.dtb.walker.walkRequestOrigin_Completed::total            0                       # Table walker requests started/completed, data/inst
system.cpu.dtb.walker.walkRequestOrigin::total            0                       # Table walker requests started/completed, data/inst
system.cpu.dtb.walker.walks                         0                       # Table walker walks requested
system.cpu.dtb.write_accesses                       0                       # DTB write accesses
system.cpu.dtb.write_hits                           0                       # DTB write hits
system.cpu.dtb.write_misses                         0                       # DTB write misses
system.cpu.fetch.Branches                      513659                       # Number of branches that fetch encountered
system.cpu.fetch.CacheLines                    713306                       # Number of cache lines fetched
system.cpu.fetch.Cycles                       1202996                       # Number of cycles fetch has run and was not squashing or blocked
system.cpu.fetch.IcacheSquashes                  3122                       # Number of outstanding Icache misses that were squashed
system.cpu.fetch.IcacheWaitRetryStallCycles          129                       # Number of stall cycles due to full MSHR
system.cpu.fetch.Insts                        4360340                       # Number of instructions fetch has processed
system.cpu.fetch.MiscStallCycles                    9                       # Number of cycles fetch has spent waiting on interrupts, or bad addresses, or out of MSHRs
system.cpu.fetch.SquashCycles                    9822                       # Number of cycles fetch has spent squashing
system.cpu.fetch.branchRate                  0.219986                       # Number of branch fetches per cycle
system.cpu.fetch.icacheStallCycles             987485                       # Number of cycles fetch is stalled on an Icache miss
system.cpu.fetch.predictedBranches             398170                       # Number of branches that fetch has predicted taken
system.cpu.fetch.rate                        1.867416                       # Number of inst fetches per cycle
system.cpu.fetch.rateDist::samples            2195530                       # Number of instructions fetched each cycle (Total)
system.cpu.fetch.rateDist::mean              2.097583                       # Number of instructions fetched each cycle (Total)
system.cpu.fetch.rateDist::stdev             2.857744                       # Number of instructions fetched each cycle (Total)
system.cpu.fetch.rateDist::underflows               0      0.00%      0.00% # Number of instructions fetched each cycle (Total)
system.cpu.fetch.rateDist::0                  1155547     52.63%     52.63% # Number of instructions fetched each cycle (Total)
system.cpu.fetch.rateDist::1                   190903      8.70%     61.33% # Number of instructions fetched each cycle (Total)
system.cpu.fetch.rateDist::2                   134034      6.10%     67.43% # Number of instructions fetched each cycle (Total)
system.cpu.fetch.rateDist::3                   106940      4.87%     72.30% # Number of instructions fetched each cycle (Total)
system.cpu.fetch.rateDist::4                   177663      8.09%     80.39% # Number of instructions fetched each cycle (Total)
system.cpu.fetch.rateDist::5                    38650      1.76%     82.15% # Number of instructions fetched each cycle (Total)
system.cpu.fetch.rateDist::6                   104041      4.74%     86.89% # Number of instructions fetched each cycle (Total)
system.cpu.fetch.rateDist::7                     4648      0.21%     87.11% # Number of instructions fetched each cycle (Total)
system.cpu.fetch.rateDist::8                   283104     12.89%    100.00% # Number of instructions fetched each cycle (Total)
system.cpu.fetch.rateDist::overflows                0      0.00%    100.00% # Number of instructions fetched each cycle (Total)
system.cpu.fetch.rateDist::min_value                0                       # Number of instructions fetched each cycle (Total)
system.cpu.fetch.rateDist::max_value                8                       # Number of instructions fetched each cycle (Total)
system.cpu.fetch.rateDist::total              2195530                       # Number of instructions fetched each cycle (Total)
system.cpu.idleCycles                          139429                       # Total number of cycles that the CPU has spent unscheduled due to idling
system.cpu.iew.branchMispredicts                 4157                       # Number of branch mispredicts detected at execute
system.cpu.iew.exec_branches                   500881                       # Number of branches executed
system.cpu.iew.exec_nop                           713                       # number of nop insts executed
system.cpu.iew.exec_rate                     1.945506                       # Inst execution rate
system.cpu.iew.exec_refs                       735615                       # number of memory reference insts executed
system.cpu.iew.exec_stores                     224691                       # Number of stores executed
system.cpu.iew.exec_swp                             0                       # number of swp insts executed
system.cpu.iew.iewBlockCycles                   21394                       # Number of cycles IEW is blocking
system.cpu.iew.iewDispLoadInsts                510819                       # Number of dispatched load instructions
system.cpu.iew.iewDispNonSpecInsts                389                       # Number of dispatched non-speculative instructions
system.cpu.iew.iewDispSquashedInsts              1407                       # Number of squashed instructions skipped by dispatch
system.cpu.iew.iewDispStoreInsts               228133                       # Number of dispatched store instructions
system.cpu.iew.iewDispatchedInsts             4562546                       # Number of instructions dispatched to IQ
system.cpu.iew.iewExecLoadInsts                510924                       # Number of load instructions executed
system.cpu.iew.iewExecSquashedInsts              4984                       # Number of squashed instructions skipped in execute
system.cpu.iew.iewExecutedInsts               4542677                       # Number of executed instructions
system.cpu.iew.iewIQFullEvents                    165                       # Number of times the IQ has become full, causing a stall
system.cpu.iew.iewIdleCycles                        0                       # Number of cycles IEW is idle
system.cpu.iew.iewLSQFullEvents                  2839                       # Number of times the LSQ has become full, causing a stall
system.cpu.iew.iewSquashCycles                   4017                       # Number of cycles IEW is squashing
system.cpu.iew.iewUnblockCycles                  3090                       # Number of cycles IEW is unblocking
system.cpu.iew.lsq.thread0.blockedLoads             0                       # Number of blocked loads due to partial load-store forwarding
system.cpu.iew.lsq.thread0.cacheBlocked         14097                       # Number of times an access to memory failed due to the cache being blocked
system.cpu.iew.lsq.thread0.forwLoads             1921                       # Number of loads that had data forwarded from stores
system.cpu.iew.lsq.thread0.ignoredResponses           31                       # Number of memory responses ignored because the instruction is squashed
system.cpu.iew.lsq.thread0.invAddrLoads             0                       # Number of loads ignored due to an invalid address
system.cpu.iew.lsq.thread0.invAddrSwpfs             0                       # Number of software prefetches ignored due to an invalid address
system.cpu.iew.lsq.thread0.memOrderViolation           74                       # Number of memory ordering violations
system.cpu.iew.lsq.thread0.rescheduledLoads         1499                       # Number of loads that were rescheduled
system.cpu.iew.lsq.thread0.squashedLoads         9622                       # Number of loads squashed
system.cpu.iew.lsq.thread0.squashedStores        14788                       # Number of stores squashed
system.cpu.iew.memOrderViolationEvents             74                       # Number of memory order violations
system.cpu.iew.predictedNotTakenIncorrect         3122                       # Number of branches that were predicted not taken incorrectly
system.cpu.iew.predictedTakenIncorrect           1035                       # Number of branches that were predicted taken incorrectly
system.cpu.iew.wb_consumers                   5837318                       # num instructions consuming a value
system.cpu.iew.wb_count                       4529065                       # cumulative count of insts written-back
system.cpu.iew.wb_fanout                     0.606796                       # average fanout of values written-back
system.cpu.iew.wb_producers                   3542061                       # num instructions producing a value
system.cpu.iew.wb_rate                       1.939676                       # insts written-back per cycle
system.cpu.iew.wb_sent                        4537880                       # cumulative count of insts sent to commit
system.cpu.int_regfile_reads                  3270604                       # number of integer regfile reads
system.cpu.int_regfile_writes                 1892789                       # number of integer regfile writes
system.cpu.ipc                               1.810908                       # IPC: Instructions Per Cycle
system.cpu.ipc_total                         1.810908                       # IPC: Total IPC of All Threads
system.cpu.iq.FU_type_0::No_OpClass               182      0.00%      0.00% # Type of FU issued
system.cpu.iq.FU_type_0::IntAlu               2147990     47.23%     47.24% # Type of FU issued
system.cpu.iq.FU_type_0::IntMult                 3415      0.08%     47.31% # Type of FU issued
system.cpu.iq.FU_type_0::IntDiv                   507      0.01%     47.32% # Type of FU issued
system.cpu.iq.FU_type_0::FloatAdd              334083      7.35%     54.67% # Type of FU issued
system.cpu.iq.FU_type_0::FloatCmp                   5      0.00%     54.67% # Type of FU issued
system.cpu.iq.FU_type_0::FloatCvt               76971      1.69%     56.36% # Type of FU issued
system.cpu.iq.FU_type_0::FloatMult             257021      5.65%     62.01% # Type of FU issued
system.cpu.iq.FU_type_0::FloatMultAcc          811499     17.84%     79.86% # Type of FU issued
system.cpu.iq.FU_type_0::FloatDiv                   3      0.00%     79.86% # Type of FU issued
system.cpu.iq.FU_type_0::FloatMisc             176494      3.88%     83.74% # Type of FU issued
system.cpu.iq.FU_type_0::FloatSqrt                  0      0.00%     83.74% # Type of FU issued
system.cpu.iq.FU_type_0::SimdAdd                  434      0.01%     83.75% # Type of FU issued
system.cpu.iq.FU_type_0::SimdAddAcc                 0      0.00%     83.75% # Type of FU issued
system.cpu.iq.FU_type_0::SimdAlu                  557      0.01%     83.76% # Type of FU issued
system.cpu.iq.FU_type_0::SimdCmp                  503      0.01%     83.77% # Type of FU issued
system.cpu.iq.FU_type_0::SimdCvt                    0      0.00%     83.77% # Type of FU issued
system.cpu.iq.FU_type_0::SimdMisc                 521      0.01%     83.78% # Type of FU issued
system.cpu.iq.FU_type_0::SimdMult                   0      0.00%     83.78% # Type of FU issued
system.cpu.iq.FU_type_0::SimdMultAcc                0      0.00%     83.78% # Type of FU issued
system.cpu.iq.FU_type_0::SimdShift                  0      0.00%     83.78% # Type of FU issued
system.cpu.iq.FU_type_0::SimdShiftAcc               0      0.00%     83.78% # Type of FU issued
system.cpu.iq.FU_type_0::SimdDiv                    0      0.00%     83.78% # Type of FU issued
system.cpu.iq.FU_type_0::SimdSqrt                   0      0.00%     83.78% # Type of FU issued
system.cpu.iq.FU_type_0::SimdFloatAdd               0      0.00%     83.78% # Type of FU issued
system.cpu.iq.FU_type_0::SimdFloatAlu               0      0.00%     83.78% # Type of FU issued
system.cpu.iq.FU_type_0::SimdFloatCmp               0      0.00%     83.78% # Type of FU issued
system.cpu.iq.FU_type_0::SimdFloatCvt               0      0.00%     83.78% # Type of FU issued
system.cpu.iq.FU_type_0::SimdFloatDiv               0      0.00%     83.78% # Type of FU issued
system.cpu.iq.FU_type_0::SimdFloatMisc              0      0.00%     83.78% # Type of FU issued
system.cpu.iq.FU_type_0::SimdFloatMult              0      0.00%     83.78% # Type of FU issued
system.cpu.iq.FU_type_0::SimdFloatMultAcc            0      0.00%     83.78% # Type of FU issued
system.cpu.iq.FU_type_0::SimdFloatSqrt              0      0.00%     83.78% # Type of FU issued
system.cpu.iq.FU_type_0::SimdReduceAdd              0      0.00%     83.78% # Type of FU issued
system.cpu.iq.FU_type_0::SimdReduceAlu              0      0.00%     83.78% # Type of FU issued
system.cpu.iq.FU_type_0::SimdReduceCmp              0      0.00%     83.78% # Type of FU issued
system.cpu.iq.FU_type_0::SimdFloatReduceAdd            0      0.00%     83.78% # Type of FU issued
system.cpu.iq.FU_type_0::SimdFloatReduceCmp            0      0.00%     83.78% # Type of FU issued
system.cpu.iq.FU_type_0::SimdAes                    0      0.00%     83.78% # Type of FU issued
system.cpu.iq.FU_type_0::SimdAesMix                 0      0.00%     83.78% # Type of FU issued
system.cpu.iq.FU_type_0::SimdSha1Hash               0      0.00%     83.78% # Type of FU issued
system.cpu.iq.FU_type_0::SimdSha1Hash2              0      0.00%     83.78% # Type of FU issued
system.cpu.iq.FU_type_0::SimdSha256Hash             0      0.00%     83.78% # Type of FU issued
system.cpu.iq.FU_type_0::SimdSha256Hash2            0      0.00%     83.78% # Type of FU issued
system.cpu.iq.FU_type_0::SimdShaSigma2              0      0.00%     83.78% # Type of FU issued
system.cpu.iq.FU_type_0::SimdShaSigma3              0      0.00%     83.78% # Type of FU issued
system.cpu.iq.FU_type_0::SimdPredAlu                0      0.00%     83.78% # Type of FU issued
system.cpu.iq.FU_type_0::MemRead               511900     11.26%     95.04% # Type of FU issued
system.cpu.iq.FU_type_0::MemWrite              225576      4.96%    100.00% # Type of FU issued
system.cpu.iq.FU_type_0::FloatMemRead               0      0.00%    100.00% # Type of FU issued
system.cpu.iq.FU_type_0::FloatMemWrite              0      0.00%    100.00% # Type of FU issued
system.cpu.iq.FU_type_0::IprAccess                  0      0.00%    100.00% # Type of FU issued
system.cpu.iq.FU_type_0::InstPrefetch               0      0.00%    100.00% # Type of FU issued
system.cpu.iq.FU_type_0::total                4547661                       # Type of FU issued
system.cpu.iq.fp_alu_accesses                       0                       # Number of floating point alu accesses
system.cpu.iq.fp_inst_queue_reads                   0                       # Number of floating instruction queue reads
system.cpu.iq.fp_inst_queue_wakeup_accesses            0                       # Number of floating instruction queue wakeup accesses
system.cpu.iq.fp_inst_queue_writes                  0                       # Number of floating instruction queue writes
system.cpu.iq.fu_busy_cnt                      133992                       # FU busy when requested
system.cpu.iq.fu_busy_rate                   0.029464                       # FU busy rate (busy events/executed inst)
system.cpu.iq.fu_full::No_OpClass                   0      0.00%      0.00% # attempts to use FU when none available
system.cpu.iq.fu_full::IntAlu                    1808      1.35%      1.35% # attempts to use FU when none available
system.cpu.iq.fu_full::IntMult                    470      0.35%      1.70% # attempts to use FU when none available
system.cpu.iq.fu_full::IntDiv                       0      0.00%      1.70% # attempts to use FU when none available
system.cpu.iq.fu_full::FloatAdd                     0      0.00%      1.70% # attempts to use FU when none available
system.cpu.iq.fu_full::FloatCmp                     0      0.00%      1.70% # attempts to use FU when none available
system.cpu.iq.fu_full::FloatCvt                     0      0.00%      1.70% # attempts to use FU when none available
system.cpu.iq.fu_full::FloatMult                18656     13.92%     15.62% # attempts to use FU when none available
system.cpu.iq.fu_full::FloatMultAcc             81461     60.80%     76.42% # attempts to use FU when none available
system.cpu.iq.fu_full::FloatDiv                     0      0.00%     76.42% # attempts to use FU when none available
system.cpu.iq.fu_full::FloatMisc                26973     20.13%     96.55% # attempts to use FU when none available
system.cpu.iq.fu_full::FloatSqrt                    0      0.00%     96.55% # attempts to use FU when none available
system.cpu.iq.fu_full::SimdAdd                      0      0.00%     96.55% # attempts to use FU when none available
system.cpu.iq.fu_full::SimdAddAcc                   0      0.00%     96.55% # attempts to use FU when none available
system.cpu.iq.fu_full::SimdAlu                      2      0.00%     96.55% # attempts to use FU when none available
system.cpu.iq.fu_full::SimdCmp                      4      0.00%     96.55% # attempts to use FU when none available
system.cpu.iq.fu_full::SimdCvt                      0      0.00%     96.55% # attempts to use FU when none available
system.cpu.iq.fu_full::SimdMisc                     0      0.00%     96.55% # attempts to use FU when none available
system.cpu.iq.fu_full::SimdMult                     0      0.00%     96.55% # attempts to use FU when none available
system.cpu.iq.fu_full::SimdMultAcc                  0      0.00%     96.55% # attempts to use FU when none available
system.cpu.iq.fu_full::SimdShift                    0      0.00%     96.55% # attempts to use FU when none available
system.cpu.iq.fu_full::SimdShiftAcc                 0      0.00%     96.55% # attempts to use FU when none available
system.cpu.iq.fu_full::SimdDiv                      0      0.00%     96.55% # attempts to use FU when none available
system.cpu.iq.fu_full::SimdSqrt                     0      0.00%     96.55% # attempts to use FU when none available
system.cpu.iq.fu_full::SimdFloatAdd                 0      0.00%     96.55% # attempts to use FU when none available
system.cpu.iq.fu_full::SimdFloatAlu                 0      0.00%     96.55% # attempts to use FU when none available
system.cpu.iq.fu_full::SimdFloatCmp                 0      0.00%     96.55% # attempts to use FU when none available
system.cpu.iq.fu_full::SimdFloatCvt                 0      0.00%     96.55% # attempts to use FU when none available
system.cpu.iq.fu_full::SimdFloatDiv                 0      0.00%     96.55% # attempts to use FU when none available
system.cpu.iq.fu_full::SimdFloatMisc                0      0.00%     96.55% # attempts to use FU when none available
system.cpu.iq.fu_full::SimdFloatMult                0      0.00%     96.55% # attempts to use FU when none available
system.cpu.iq.fu_full::SimdFloatMultAcc             0      0.00%     96.55% # attempts to use FU when none available
system.cpu.iq.fu_full::SimdFloatSqrt                0      0.00%     96.55% # attempts to use FU when none available
system.cpu.iq.fu_full::SimdReduceAdd                0      0.00%     96.55% # attempts to use FU when none available
system.cpu.iq.fu_full::SimdReduceAlu                0      0.00%     96.55% # attempts to use FU when none available
system.cpu.iq.fu_full::SimdReduceCmp                0      0.00%     96.55% # attempts to use FU when none available
system.cpu.iq.fu_full::SimdFloatReduceAdd            0      0.00%     96.55% # attempts to use FU when none available
system.cpu.iq.fu_full::SimdFloatReduceCmp            0      0.00%     96.55% # attempts to use FU when none available
system.cpu.iq.fu_full::SimdAes                      0      0.00%     96.55% # attempts to use FU when none available
system.cpu.iq.fu_full::SimdAesMix                   0      0.00%     96.55% # attempts to use FU when none available
system.cpu.iq.fu_full::SimdSha1Hash                 0      0.00%     96.55% # attempts to use FU when none available
system.cpu.iq.fu_full::SimdSha1Hash2                0      0.00%     96.55% # attempts to use FU when none available
system.cpu.iq.fu_full::SimdSha256Hash               0      0.00%     96.55% # attempts to use FU when none available
system.cpu.iq.fu_full::SimdSha256Hash2              0      0.00%     96.55% # attempts to use FU when none available
system.cpu.iq.fu_full::SimdShaSigma2                0      0.00%     96.55% # attempts to use FU when none available
system.cpu.iq.fu_full::SimdShaSigma3                0      0.00%     96.55% # attempts to use FU when none available
system.cpu.iq.fu_full::SimdPredAlu                  0      0.00%     96.55% # attempts to use FU when none available
system.cpu.iq.fu_full::MemRead                   1450      1.08%     97.64% # attempts to use FU when none available
system.cpu.iq.fu_full::MemWrite                  3168      2.36%    100.00% # attempts to use FU when none available
system.cpu.iq.fu_full::FloatMemRead                 0      0.00%    100.00% # attempts to use FU when none available
system.cpu.iq.fu_full::FloatMemWrite                0      0.00%    100.00% # attempts to use FU when none available
system.cpu.iq.fu_full::IprAccess                    0      0.00%    100.00% # attempts to use FU when none available
system.cpu.iq.fu_full::InstPrefetch                 0      0.00%    100.00% # attempts to use FU when none available
system.cpu.iq.int_alu_accesses                2441640                       # Number of integer alu accesses
system.cpu.iq.int_inst_queue_reads            7072686                       # Number of integer instruction queue reads
system.cpu.iq.int_inst_queue_wakeup_accesses      2416868                       # Number of integer instruction queue wakeup accesses
system.cpu.iq.int_inst_queue_writes           2547617                       # Number of integer instruction queue writes
system.cpu.iq.iqInstsAdded                    4561444                       # Number of instructions added to the IQ (excludes non-spec)
system.cpu.iq.iqInstsIssued                   4547661                       # Number of instructions issued
system.cpu.iq.iqNonSpecInstsAdded                 389                       # Number of non-speculative instructions added to the IQ
system.cpu.iq.iqSquashedInstsExamined           99969                       # Number of squashed instructions iterated over during squash; mainly for profiling
system.cpu.iq.iqSquashedInstsIssued               448                       # Number of squashed instructions issued
system.cpu.iq.iqSquashedNonSpecRemoved             76                       # Number of squashed non-spec instructions that were removed
system.cpu.iq.iqSquashedOperandsExamined        60468                       # Number of squashed operands that are examined and possibly removed from graph
system.cpu.iq.issued_per_cycle::samples       2195530                       # Number of insts issued each cycle
system.cpu.iq.issued_per_cycle::mean         2.071327                       # Number of insts issued each cycle
system.cpu.iq.issued_per_cycle::stdev        2.071881                       # Number of insts issued each cycle
system.cpu.iq.issued_per_cycle::underflows            0      0.00%      0.00% # Number of insts issued each cycle
system.cpu.iq.issued_per_cycle::0              680998     31.02%     31.02% # Number of insts issued each cycle
system.cpu.iq.issued_per_cycle::1              320866     14.61%     45.63% # Number of insts issued each cycle
system.cpu.iq.issued_per_cycle::2              449705     20.48%     66.11% # Number of insts issued each cycle
system.cpu.iq.issued_per_cycle::3              275856     12.56%     78.68% # Number of insts issued each cycle
system.cpu.iq.issued_per_cycle::4              165409      7.53%     86.21% # Number of insts issued each cycle
system.cpu.iq.issued_per_cycle::5              153765      7.00%     93.22% # Number of insts issued each cycle
system.cpu.iq.issued_per_cycle::6               25579      1.17%     94.38% # Number of insts issued each cycle
system.cpu.iq.issued_per_cycle::7               70934      3.23%     97.61% # Number of insts issued each cycle
system.cpu.iq.issued_per_cycle::8               52418      2.39%    100.00% # Number of insts issued each cycle
system.cpu.iq.issued_per_cycle::overflows            0      0.00%    100.00% # Number of insts issued each cycle
system.cpu.iq.issued_per_cycle::min_value            0                       # Number of insts issued each cycle
system.cpu.iq.issued_per_cycle::max_value            8                       # Number of insts issued each cycle
system.cpu.iq.issued_per_cycle::total         2195530                       # Number of insts issued each cycle
system.cpu.iq.rate                           1.947641                       # Inst issue rate
system.cpu.iq.vec_alu_accesses                2239831                       # Number of vector alu accesses
system.cpu.iq.vec_inst_queue_reads            4352606                       # Number of vector instruction queue reads
system.cpu.iq.vec_inst_queue_wakeup_accesses      2112197                       # Number of vector instruction queue wakeup accesses
system.cpu.iq.vec_inst_queue_writes           2114254                       # Number of vector instruction queue writes
system.cpu.itb.accesses                             0                       # DTB accesses
system.cpu.itb.align_faults                         0                       # Number of TLB faults due to alignment restrictions
system.cpu.itb.domain_faults                        0                       # Number of TLB faults due to domain restrictions
system.cpu.itb.flush_entries                        0                       # Number of entries that have been flushed from TLB
system.cpu.itb.flush_tlb                            0                       # Number of times complete TLB was flushed
system.cpu.itb.flush_tlb_asid                       0                       # Number of times TLB was flushed by ASID
system.cpu.itb.flush_tlb_mva                        0                       # Number of times TLB was flushed by MVA
system.cpu.itb.flush_tlb_mva_asid                   0                       # Number of times TLB was flushed by MVA & ASID
system.cpu.itb.hits                                 0                       # DTB hits
system.cpu.itb.inst_accesses                        0                       # ITB inst accesses
system.cpu.itb.inst_hits                            0                       # ITB inst hits
system.cpu.itb.inst_misses                          0                       # ITB inst misses
system.cpu.itb.misses                               0                       # DTB misses
system.cpu.itb.perms_faults                         0                       # Number of TLB faults due to permissions restrictions
system.cpu.itb.prefetch_faults                      0                       # Number of TLB faults due to prefetch
system.cpu.itb.read_accesses                        0                       # DTB read accesses
system.cpu.itb.read_hits                            0                       # DTB read hits
system.cpu.itb.read_misses                          0                       # DTB read misses
system.cpu.itb.stage2_mmu.stage2_tlb.accesses            0                       # DTB accesses
system.cpu.itb.stage2_mmu.stage2_tlb.align_faults            0                       # Number of TLB faults due to alignment restrictions
system.cpu.itb.stage2_mmu.stage2_tlb.domain_faults            0                       # Number of TLB faults due to domain restrictions
system.cpu.itb.stage2_mmu.stage2_tlb.flush_entries            0                       # Number of entries that have been flushed from TLB
system.cpu.itb.stage2_mmu.stage2_tlb.flush_tlb            0                       # Number of times complete TLB was flushed
system.cpu.itb.stage2_mmu.stage2_tlb.flush_tlb_asid            0                       # Number of times TLB was flushed by ASID
system.cpu.itb.stage2_mmu.stage2_tlb.flush_tlb_mva            0                       # Number of times TLB was flushed by MVA
system.cpu.itb.stage2_mmu.stage2_tlb.flush_tlb_mva_asid            0                       # Number of times TLB was flushed by MVA & ASID
system.cpu.itb.stage2_mmu.stage2_tlb.hits            0                       # DTB hits
system.cpu.itb.stage2_mmu.stage2_tlb.inst_accesses            0                       # ITB inst accesses
system.cpu.itb.stage2_mmu.stage2_tlb.inst_hits            0                       # ITB inst hits
system.cpu.itb.stage2_mmu.stage2_tlb.inst_misses            0                       # ITB inst misses
system.cpu.itb.stage2_mmu.stage2_tlb.misses            0                       # DTB misses
system.cpu.itb.stage2_mmu.stage2_tlb.perms_faults            0                       # Number of TLB faults due to permissions restrictions
system.cpu.itb.stage2_mmu.stage2_tlb.prefetch_faults            0                       # Number of TLB faults due to prefetch
system.cpu.itb.stage2_mmu.stage2_tlb.read_accesses            0                       # DTB read accesses
system.cpu.itb.stage2_mmu.stage2_tlb.read_hits            0                       # DTB read hits
system.cpu.itb.stage2_mmu.stage2_tlb.read_misses            0                       # DTB read misses
system.cpu.itb.stage2_mmu.stage2_tlb.walker.walkRequestOrigin_Requested::Data            0                       # Table walker requests started/completed, data/inst
system.cpu.itb.stage2_mmu.stage2_tlb.walker.walkRequestOrigin_Requested::Inst            0                       # Table walker requests started/completed, data/inst
system.cpu.itb.stage2_mmu.stage2_tlb.walker.walkRequestOrigin_Requested::total            0                       # Table walker requests started/completed, data/inst
system.cpu.itb.stage2_mmu.stage2_tlb.walker.walkRequestOrigin_Completed::Data            0                       # Table walker requests started/completed, data/inst
system.cpu.itb.stage2_mmu.stage2_tlb.walker.walkRequestOrigin_Completed::Inst            0                       # Table walker requests started/completed, data/inst
system.cpu.itb.stage2_mmu.stage2_tlb.walker.walkRequestOrigin_Completed::total            0                       # Table walker requests started/completed, data/inst
system.cpu.itb.stage2_mmu.stage2_tlb.walker.walkRequestOrigin::total            0                       # Table walker requests started/completed, data/inst
system.cpu.itb.stage2_mmu.stage2_tlb.walker.walks            0                       # Table walker walks requested
system.cpu.itb.stage2_mmu.stage2_tlb.write_accesses            0                       # DTB write accesses
system.cpu.itb.stage2_mmu.stage2_tlb.write_hits            0                       # DTB write hits
system.cpu.itb.stage2_mmu.stage2_tlb.write_misses            0                       # DTB write misses
system.cpu.itb.walker.walkRequestOrigin_Requested::Data            0                       # Table walker requests started/completed, data/inst
system.cpu.itb.walker.walkRequestOrigin_Requested::Inst            0                       # Table walker requests started/completed, data/inst
system.cpu.itb.walker.walkRequestOrigin_Requested::total            0                       # Table walker requests started/completed, data/inst
system.cpu.itb.walker.walkRequestOrigin_Completed::Data            0                       # Table walker requests started/completed, data/inst
system.cpu.itb.walker.walkRequestOrigin_Completed::Inst            0                       # Table walker requests started/completed, data/inst
system.cpu.itb.walker.walkRequestOrigin_Completed::total            0                       # Table walker requests started/completed, data/inst
system.cpu.itb.walker.walkRequestOrigin::total            0                       # Table walker requests started/completed, data/inst
system.cpu.itb.walker.walks                         0                       # Table walker walks requested
system.cpu.itb.write_accesses                       0                       # DTB write accesses
system.cpu.itb.write_hits                           0                       # DTB write hits
system.cpu.itb.write_misses                         0                       # DTB write misses
system.cpu.memDep0.conflictingLoads              1049                       # Number of conflicting loads.
system.cpu.memDep0.conflictingStores             1363                       # Number of conflicting stores.
system.cpu.memDep0.insertedLoads               510819                       # Number of loads inserted to the mem dependence unit.
system.cpu.memDep0.insertedStores              228133                       # Number of stores inserted to the mem dependence unit.
system.cpu.misc_regfile_reads                 7979218                       # number of misc regfile reads
system.cpu.misc_regfile_writes                1480611                       # number of misc regfile writes
system.cpu.numCycles                          2334959                       # number of cpu cycles simulated
system.cpu.numWorkItemsCompleted                    0                       # number of work items this cpu completed
system.cpu.numWorkItemsStarted                      0                       # number of work items this cpu started
system.cpu.rename.BlockCycles                   27578                       # Number of cycles rename is blocking
system.cpu.rename.CommittedMaps               6322780                       # Number of HB maps that are committed
system.cpu.rename.IQFullEvents                   2188                       # Number of times rename has blocked due to IQ full
system.cpu.rename.IdleCycles                   876244                       # Number of cycles rename is idle
system.cpu.rename.LQFullEvents                    141                       # Number of times rename has blocked due to LQ full
system.cpu.rename.ROBFullEvents                   749                       # Number of times rename has blocked due to ROB full
system.cpu.rename.RenameLookups              13664648                       # Number of register rename lookups that rename has made
system.cpu.rename.RenamedInsts                4574780                       # Number of instructions processed by rename
system.cpu.rename.RenamedOperands             6444592                       # Number of destination operands rename has renamed
system.cpu.rename.RunCycles                    966791                       # Number of cycles rename is running
system.cpu.rename.SQFullEvents                 294260                       # Number of times rename has blocked due to SQ full
system.cpu.rename.SquashCycles                   4017                       # Number of cycles rename is squashing
system.cpu.rename.UnblockCycles                298974                       # Number of cycles rename is unblocking
system.cpu.rename.UndoneMaps                   121812                       # Number of HB maps that are undone due to squashing
system.cpu.rename.int_rename_lookups          3309331                       # Number of integer rename lookups
system.cpu.rename.serializeStallCycles          21926                       # count of cycles rename stalled for serializing inst
system.cpu.rename.serializingInsts               1180                       # count of serializing insts renamed
system.cpu.rename.skidInsts                     79029                       # count of insts added to the skid buffer
system.cpu.rename.tempSerializingInsts            384                       # count of temporary serializing insts renamed
system.cpu.rename.vec_rename_lookups          3741258                       # Number of vector rename lookups
system.cpu.rob.rob_reads                      6368161                       # The number of ROB reads
system.cpu.rob.rob_writes                     9128010                       # The number of ROB writes
system.cpu.timesIdled                            9479                       # Number of times that the entire CPU went into an idle state and unscheduled itself
system.cpu.vec_regfile_reads                  3739938                       # number of vector regfile reads
system.cpu.vec_regfile_writes                 2150449                       # number of vector regfile writes
system.cpu.workload.numSyscalls                    34                       # Number of system calls
system.membus.snoop_filter.hit_multi_requests            0                       # Number of requests hitting in the snoop filter with multiple (>1) holders of the requested data.
system.membus.snoop_filter.hit_multi_snoops            0                       # Number of snoops hitting in the snoop filter with multiple (>1) holders of the requested data.
system.membus.snoop_filter.hit_single_requests            0                       # Number of requests hitting in the snoop filter with a single holder of the requested data.
system.membus.snoop_filter.hit_single_snoops            0                       # Number of snoops hitting in the snoop filter with a single holder of the requested data.
system.membus.snoop_filter.tot_requests         19843                       # Total number of requests made to the snoop filter.
system.membus.snoop_filter.tot_snoops               0                       # Total number of snoops made to the snoop filter.
system.tol2bus.snoop_filter.hit_multi_requests            1                       # Number of requests hitting in the snoop filter with multiple (>1) holders of the requested data.
system.tol2bus.snoop_filter.hit_multi_snoops            0                       # Number of snoops hitting in the snoop filter with multiple (>1) holders of the requested data.
system.tol2bus.snoop_filter.hit_single_requests        31342                       # Number of requests hitting in the snoop filter with a single holder of the requested data.
system.tol2bus.snoop_filter.hit_single_snoops            0                       # Number of snoops hitting in the snoop filter with a single holder of the requested data.
system.tol2bus.snoop_filter.tot_requests        63837                       # Total number of requests made to the snoop filter.
system.tol2bus.snoop_filter.tot_snoops              0                       # Total number of snoops made to the snoop filter.
system.membus.trans_dist::ReadResp               1702                       # Transaction distribution
system.membus.trans_dist::ReadExReq             16962                       # Transaction distribution
system.membus.trans_dist::ReadExResp            16962                       # Transaction distribution
system.membus.trans_dist::ReadSharedReq          1702                       # Transaction distribution
system.membus.trans_dist::InvalidateReq          1179                       # Transaction distribution
system.membus.pkt_count_system.l2.mem_side::system.mem_ctrls.port        38507                       # Packet count per connected master and slave (bytes)
system.membus.pkt_count::total                  38507                       # Packet count per connected master and slave (bytes)
system.membus.pkt_size_system.l2.mem_side::system.mem_ctrls.port      1194496                       # Cumulative packet size per connected master and slave (bytes)
system.membus.pkt_size::total                 1194496                       # Cumulative packet size per connected master and slave (bytes)
system.membus.snoops                                0                       # Total snoops (count)
system.membus.snoopTraffic                          0                       # Total snoop traffic (bytes)
system.membus.snoop_fanout::samples             19843                       # Request fanout histogram
system.membus.snoop_fanout::mean                    0                       # Request fanout histogram
system.membus.snoop_fanout::stdev                   0                       # Request fanout histogram
system.membus.snoop_fanout::underflows              0      0.00%      0.00% # Request fanout histogram
system.membus.snoop_fanout::0                   19843    100.00%    100.00% # Request fanout histogram
system.membus.snoop_fanout::1                       0      0.00%    100.00% # Request fanout histogram
system.membus.snoop_fanout::overflows               0      0.00%    100.00% # Request fanout histogram
system.membus.snoop_fanout::min_value               0                       # Request fanout histogram
system.membus.snoop_fanout::max_value               0                       # Request fanout histogram
system.membus.snoop_fanout::total               19843                       # Request fanout histogram
system.membus.reqLayer0.occupancy            28454000                       # Layer occupancy (ticks)
system.membus.reqLayer0.utilization               2.4                       # Layer utilization (%)
system.membus.respLayer1.occupancy           97799250                       # Layer occupancy (ticks)
system.membus.respLayer1.utilization              8.4                       # Layer utilization (%)
system.membus.power_state.pwrStateResidencyTicks::UNDEFINED   1167478500                       # Cumulative time (in ticks) in various power states
system.tol2bus.trans_dist::ReadResp             14223                       # Transaction distribution
system.tol2bus.trans_dist::WritebackDirty        17447                       # Transaction distribution
system.tol2bus.trans_dist::WritebackClean        13503                       # Transaction distribution
system.tol2bus.trans_dist::CleanEvict             392                       # Transaction distribution
system.tol2bus.trans_dist::ReadExReq            17091                       # Transaction distribution
system.tol2bus.trans_dist::ReadExResp           17091                       # Transaction distribution
system.tol2bus.trans_dist::ReadCleanReq         13632                       # Transaction distribution
system.tol2bus.trans_dist::ReadSharedReq          592                       # Transaction distribution
system.tol2bus.trans_dist::InvalidateReq         1180                       # Transaction distribution
system.tol2bus.trans_dist::InvalidateResp         1180                       # Transaction distribution
system.tol2bus.pkt_count_system.cpu.icache.mem_side::system.l2.cpu_side        40766                       # Packet count per connected master and slave (bytes)
system.tol2bus.pkt_count_system.cpu.dcache.mem_side::system.l2.cpu_side        55565                       # Packet count per connected master and slave (bytes)
system.tol2bus.pkt_count::total                 96331                       # Packet count per connected master and slave (bytes)
system.tol2bus.pkt_size_system.cpu.icache.mem_side::system.l2.cpu_side      1736576                       # Cumulative packet size per connected master and slave (bytes)
system.tol2bus.pkt_size_system.cpu.dcache.mem_side::system.l2.cpu_side      2248320                       # Cumulative packet size per connected master and slave (bytes)
system.tol2bus.pkt_size::total                3984896                       # Cumulative packet size per connected master and slave (bytes)
system.tol2bus.snoops                               0                       # Total snoops (count)
system.tol2bus.snoopTraffic                         0                       # Total snoop traffic (bytes)
system.tol2bus.snoop_fanout::samples            32495                       # Request fanout histogram
system.tol2bus.snoop_fanout::mean            0.000031                       # Request fanout histogram
system.tol2bus.snoop_fanout::stdev           0.005547                       # Request fanout histogram
system.tol2bus.snoop_fanout::underflows             0      0.00%      0.00% # Request fanout histogram
system.tol2bus.snoop_fanout::0                  32494    100.00%    100.00% # Request fanout histogram
system.tol2bus.snoop_fanout::1                      1      0.00%    100.00% # Request fanout histogram
system.tol2bus.snoop_fanout::2                      0      0.00%    100.00% # Request fanout histogram
system.tol2bus.snoop_fanout::overflows              0      0.00%    100.00% # Request fanout histogram
system.tol2bus.snoop_fanout::min_value              0                       # Request fanout histogram
system.tol2bus.snoop_fanout::max_value              1                       # Request fanout histogram
system.tol2bus.snoop_fanout::total              32495                       # Request fanout histogram
system.tol2bus.reqLayer0.occupancy           62868500                       # Layer occupancy (ticks)
system.tol2bus.reqLayer0.utilization              5.4                       # Layer utilization (%)
system.tol2bus.respLayer1.occupancy          27115997                       # Layer occupancy (ticks)
system.tol2bus.respLayer1.utilization             2.3                       # Layer utilization (%)
system.tol2bus.respLayer0.occupancy          20447997                       # Layer occupancy (ticks)
system.tol2bus.respLayer0.utilization             1.8                       # Layer utilization (%)
system.tol2bus.power_state.pwrStateResidencyTicks::UNDEFINED   1167478500                       # Cumulative time (in ticks) in various power states
system.voltage_domain.voltage                       1                       # Voltage in Volts
system.clk_domain.clock                          1000                       # Clock period in ticks
system.l2.demand_hits::.cpu.inst                12286                       # number of demand (read+write) hits
system.l2.demand_hits::.cpu.data                  364                       # number of demand (read+write) hits
system.l2.demand_hits::total                    12650                       # number of demand (read+write) hits
system.l2.overall_hits::.cpu.inst               12286                       # number of overall hits
system.l2.overall_hits::.cpu.data                 364                       # number of overall hits
system.l2.overall_hits::total                   12650                       # number of overall hits
system.l2.demand_misses::.cpu.inst               1346                       # number of demand (read+write) misses
system.l2.demand_misses::.cpu.data              17319                       # number of demand (read+write) misses
system.l2.demand_misses::total                  18665                       # number of demand (read+write) misses
system.l2.overall_misses::.cpu.inst              1346                       # number of overall misses
system.l2.overall_misses::.cpu.data             17319                       # number of overall misses
system.l2.overall_misses::total                 18665                       # number of overall misses
system.l2.demand_miss_latency::.cpu.inst    104862500                       # number of demand (read+write) miss cycles
system.l2.demand_miss_latency::.cpu.data   1289232000                       # number of demand (read+write) miss cycles
system.l2.demand_miss_latency::total       1394094500                       # number of demand (read+write) miss cycles
system.l2.overall_miss_latency::.cpu.inst    104862500                       # number of overall miss cycles
system.l2.overall_miss_latency::.cpu.data   1289232000                       # number of overall miss cycles
system.l2.overall_miss_latency::total      1394094500                       # number of overall miss cycles
system.l2.demand_accesses::.cpu.inst            13632                       # number of demand (read+write) accesses
system.l2.demand_accesses::.cpu.data            17683                       # number of demand (read+write) accesses
system.l2.demand_accesses::total                31315                       # number of demand (read+write) accesses
system.l2.overall_accesses::.cpu.inst           13632                       # number of overall (read+write) accesses
system.l2.overall_accesses::.cpu.data           17683                       # number of overall (read+write) accesses
system.l2.overall_accesses::total               31315                       # number of overall (read+write) accesses
system.l2.demand_miss_rate::.cpu.inst        0.098738                       # miss rate for demand accesses
system.l2.demand_miss_rate::.cpu.data        0.979415                       # miss rate for demand accesses
system.l2.demand_miss_rate::total            0.596040                       # miss rate for demand accesses
system.l2.overall_miss_rate::.cpu.inst       0.098738                       # miss rate for overall accesses
system.l2.overall_miss_rate::.cpu.data       0.979415                       # miss rate for overall accesses
system.l2.overall_miss_rate::total           0.596040                       # miss rate for overall accesses
system.l2.demand_avg_miss_latency::.cpu.inst 77906.760773                       # average overall miss latency
system.l2.demand_avg_miss_latency::.cpu.data 74440.325654                       # average overall miss latency
system.l2.demand_avg_miss_latency::total 74690.302706                       # average overall miss latency
system.l2.overall_avg_miss_latency::.cpu.inst 77906.760773                       # average overall miss latency
system.l2.overall_avg_miss_latency::.cpu.data 74440.325654                       # average overall miss latency
system.l2.overall_avg_miss_latency::total 74690.302706                       # average overall miss latency
system.l2.blocked_cycles::no_mshrs                  0                       # number of cycles access was blocked
system.l2.blocked_cycles::no_targets                0                       # number of cycles access was blocked
system.l2.blocked::no_mshrs                         0                       # number of cycles access was blocked
system.l2.blocked::no_targets                       0                       # number of cycles access was blocked
system.l2.avg_blocked_cycles::no_mshrs            nan                       # average number of cycles each access was blocked
system.l2.avg_blocked_cycles::no_targets          nan                       # average number of cycles each access was blocked
system.l2.demand_mshr_misses::.cpu.inst          1346                       # number of demand (read+write) MSHR misses
system.l2.demand_mshr_misses::.cpu.data         17319                       # number of demand (read+write) MSHR misses
system.l2.demand_mshr_misses::total             18665                       # number of demand (read+write) MSHR misses
system.l2.overall_mshr_misses::.cpu.inst         1346                       # number of overall MSHR misses
system.l2.overall_mshr_misses::.cpu.data        17319                       # number of overall MSHR misses
system.l2.overall_mshr_misses::total            18665                       # number of overall MSHR misses
system.l2.demand_mshr_miss_latency::.cpu.inst     91412500                       # number of demand (read+write) MSHR miss cycles
system.l2.demand_mshr_miss_latency::.cpu.data   1116042000                       # number of demand (read+write) MSHR miss cycles
system.l2.demand_mshr_miss_latency::total   1207454500                       # number of demand (read+write) MSHR miss cycles
system.l2.overall_mshr_miss_latency::.cpu.inst     91412500                       # number of overall MSHR miss cycles
system.l2.overall_mshr_miss_latency::.cpu.data   1116042000                       # number of overall MSHR miss cycles
system.l2.overall_mshr_miss_latency::total   1207454500                       # number of overall MSHR miss cycles
system.l2.demand_mshr_miss_rate::.cpu.inst     0.098738                       # mshr miss rate for demand accesses
system.l2.demand_mshr_miss_rate::.cpu.data     0.979415                       # mshr miss rate for demand accesses
system.l2.demand_mshr_miss_rate::total       0.596040                       # mshr miss rate for demand accesses
system.l2.overall_mshr_miss_rate::.cpu.inst     0.098738                       # mshr miss rate for overall accesses
system.l2.overall_mshr_miss_rate::.cpu.data     0.979415                       # mshr miss rate for overall accesses
system.l2.overall_mshr_miss_rate::total      0.596040                       # mshr miss rate for overall accesses
system.l2.demand_avg_mshr_miss_latency::.cpu.inst 67914.190193                       # average overall mshr miss latency
system.l2.demand_avg_mshr_miss_latency::.cpu.data 64440.325654                       # average overall mshr miss latency
system.l2.demand_avg_mshr_miss_latency::total 64690.838468                       # average overall mshr miss latency
system.l2.overall_avg_mshr_miss_latency::.cpu.inst 67914.190193                       # average overall mshr miss latency
system.l2.overall_avg_mshr_miss_latency::.cpu.data 64440.325654                       # average overall mshr miss latency
system.l2.overall_avg_mshr_miss_latency::total 64690.838468                       # average overall mshr miss latency
system.l2.replacements                              0                       # number of replacements
system.l2.WritebackDirty_hits::.writebacks        17447                       # number of WritebackDirty hits
system.l2.WritebackDirty_hits::total            17447                       # number of WritebackDirty hits
system.l2.WritebackDirty_accesses::.writebacks        17447                       # number of WritebackDirty accesses(hits+misses)
system.l2.WritebackDirty_accesses::total        17447                       # number of WritebackDirty accesses(hits+misses)
system.l2.WritebackClean_hits::.writebacks        13502                       # number of WritebackClean hits
system.l2.WritebackClean_hits::total            13502                       # number of WritebackClean hits
system.l2.WritebackClean_accesses::.writebacks        13502                       # number of WritebackClean accesses(hits+misses)
system.l2.WritebackClean_accesses::total        13502                       # number of WritebackClean accesses(hits+misses)
system.l2.ReadExReq_hits::.cpu.data               129                       # number of ReadExReq hits
system.l2.ReadExReq_hits::total                   129                       # number of ReadExReq hits
system.l2.ReadExReq_misses::.cpu.data           16962                       # number of ReadExReq misses
system.l2.ReadExReq_misses::total               16962                       # number of ReadExReq misses
system.l2.ReadExReq_miss_latency::.cpu.data   1260169000                       # number of ReadExReq miss cycles
system.l2.ReadExReq_miss_latency::total    1260169000                       # number of ReadExReq miss cycles
system.l2.ReadExReq_accesses::.cpu.data         17091                       # number of ReadExReq accesses(hits+misses)
system.l2.ReadExReq_accesses::total             17091                       # number of ReadExReq accesses(hits+misses)
system.l2.ReadExReq_miss_rate::.cpu.data     0.992452                       # miss rate for ReadExReq accesses
system.l2.ReadExReq_miss_rate::total         0.992452                       # miss rate for ReadExReq accesses
system.l2.ReadExReq_avg_miss_latency::.cpu.data 74293.656408                       # average ReadExReq miss latency
system.l2.ReadExReq_avg_miss_latency::total 74293.656408                       # average ReadExReq miss latency
system.l2.ReadExReq_mshr_misses::.cpu.data        16962                       # number of ReadExReq MSHR misses
system.l2.ReadExReq_mshr_misses::total          16962                       # number of ReadExReq MSHR misses
system.l2.ReadExReq_mshr_miss_latency::.cpu.data   1090549000                       # number of ReadExReq MSHR miss cycles
system.l2.ReadExReq_mshr_miss_latency::total   1090549000                       # number of ReadExReq MSHR miss cycles
system.l2.ReadExReq_mshr_miss_rate::.cpu.data     0.992452                       # mshr miss rate for ReadExReq accesses
system.l2.ReadExReq_mshr_miss_rate::total     0.992452                       # mshr miss rate for ReadExReq accesses
system.l2.ReadExReq_avg_mshr_miss_latency::.cpu.data 64293.656408                       # average ReadExReq mshr miss latency
system.l2.ReadExReq_avg_mshr_miss_latency::total 64293.656408                       # average ReadExReq mshr miss latency
system.l2.ReadCleanReq_hits::.cpu.inst          12286                       # number of ReadCleanReq hits
system.l2.ReadCleanReq_hits::total              12286                       # number of ReadCleanReq hits
system.l2.ReadCleanReq_misses::.cpu.inst         1346                       # number of ReadCleanReq misses
system.l2.ReadCleanReq_misses::total             1346                       # number of ReadCleanReq misses
system.l2.ReadCleanReq_miss_latency::.cpu.inst    104862500                       # number of ReadCleanReq miss cycles
system.l2.ReadCleanReq_miss_latency::total    104862500                       # number of ReadCleanReq miss cycles
system.l2.ReadCleanReq_accesses::.cpu.inst        13632                       # number of ReadCleanReq accesses(hits+misses)
system.l2.ReadCleanReq_accesses::total          13632                       # number of ReadCleanReq accesses(hits+misses)
system.l2.ReadCleanReq_miss_rate::.cpu.inst     0.098738                       # miss rate for ReadCleanReq accesses
system.l2.ReadCleanReq_miss_rate::total      0.098738                       # miss rate for ReadCleanReq accesses
system.l2.ReadCleanReq_avg_miss_latency::.cpu.inst 77906.760773                       # average ReadCleanReq miss latency
system.l2.ReadCleanReq_avg_miss_latency::total 77906.760773                       # average ReadCleanReq miss latency
system.l2.ReadCleanReq_mshr_misses::.cpu.inst         1346                       # number of ReadCleanReq MSHR misses
system.l2.ReadCleanReq_mshr_misses::total         1346                       # number of ReadCleanReq MSHR misses
system.l2.ReadCleanReq_mshr_miss_latency::.cpu.inst     91412500                       # number of ReadCleanReq MSHR miss cycles
system.l2.ReadCleanReq_mshr_miss_latency::total     91412500                       # number of ReadCleanReq MSHR miss cycles
system.l2.ReadCleanReq_mshr_miss_rate::.cpu.inst     0.098738                       # mshr miss rate for ReadCleanReq accesses
system.l2.ReadCleanReq_mshr_miss_rate::total     0.098738                       # mshr miss rate for ReadCleanReq accesses
system.l2.ReadCleanReq_avg_mshr_miss_latency::.cpu.inst 67914.190193                       # average ReadCleanReq mshr miss latency
system.l2.ReadCleanReq_avg_mshr_miss_latency::total 67914.190193                       # average ReadCleanReq mshr miss latency
[...]
system.cpu.dcache.overall_miss_latency::total   8567407475                       # number of overall miss cycles
system.cpu.dcache.demand_accesses::.cpu.data       736867                       # number of demand (read+write) accesses
system.cpu.dcache.demand_accesses::total       736867                       # number of demand (read+write) accesses
system.cpu.dcache.overall_accesses::.cpu.data       737227                       # number of overall (read+write) accesses
system.cpu.dcache.overall_accesses::total       737227                       # number of overall (read+write) accesses
system.cpu.dcache.demand_miss_rate::.cpu.data     0.187400                       # miss rate for demand accesses
system.cpu.dcache.demand_miss_rate::total     0.187400                       # miss rate for demand accesses
system.cpu.dcache.overall_miss_rate::.cpu.data     0.187326                       # miss rate for overall accesses
system.cpu.dcache.overall_miss_rate::total     0.187326                       # miss rate for overall accesses
system.cpu.dcache.demand_avg_miss_latency::.cpu.data 62042.649849                       # average overall miss latency
system.cpu.dcache.demand_avg_miss_latency::total 62042.649849                       # average overall miss latency
system.cpu.dcache.overall_avg_miss_latency::.cpu.data 62036.809568                       # average overall miss latency
system.cpu.dcache.overall_avg_miss_latency::total 62036.809568                       # average overall miss latency
system.cpu.dcache.blocked_cycles::no_mshrs       567331                       # number of cycles access was blocked
system.cpu.dcache.blocked_cycles::no_targets            0                       # number of cycles access was blocked
system.cpu.dcache.blocked::no_mshrs             16098                       # number of cycles access was blocked
system.cpu.dcache.blocked::no_targets               0                       # number of cycles access was blocked
system.cpu.dcache.avg_blocked_cycles::no_mshrs    35.242328                       # average number of cycles each access was blocked
system.cpu.dcache.avg_blocked_cycles::no_targets          nan                       # average number of cycles each access was blocked
system.cpu.dcache.writebacks::.writebacks        17447                       # number of writebacks
system.cpu.dcache.writebacks::total             17447                       # number of writebacks
system.cpu.dcache.demand_mshr_hits::.cpu.data       119234                       # number of demand (read+write) MSHR hits
system.cpu.dcache.demand_mshr_hits::total       119234                       # number of demand (read+write) MSHR hits
system.cpu.dcache.overall_mshr_hits::.cpu.data       119234                       # number of overall MSHR hits
system.cpu.dcache.overall_mshr_hits::total       119234                       # number of overall MSHR hits
system.cpu.dcache.demand_mshr_misses::.cpu.data        18855                       # number of demand (read+write) MSHR misses
system.cpu.dcache.demand_mshr_misses::total        18855                       # number of demand (read+write) MSHR misses
system.cpu.dcache.overall_mshr_misses::.cpu.data        18860                       # number of overall MSHR misses
system.cpu.dcache.overall_mshr_misses::total        18860                       # number of overall MSHR misses
system.cpu.dcache.demand_mshr_miss_latency::.cpu.data   1363975070                       # number of demand (read+write) MSHR miss cycles
system.cpu.dcache.demand_mshr_miss_latency::total   1363975070                       # number of demand (read+write) MSHR miss cycles
system.cpu.dcache.overall_mshr_miss_latency::.cpu.data   1364256070                       # number of overall MSHR miss cycles
system.cpu.dcache.overall_mshr_miss_latency::total   1364256070                       # number of overall MSHR miss cycles
system.cpu.dcache.demand_mshr_miss_rate::.cpu.data     0.025588                       # mshr miss rate for demand accesses
system.cpu.dcache.demand_mshr_miss_rate::total     0.025588                       # mshr miss rate for demand accesses
system.cpu.dcache.overall_mshr_miss_rate::.cpu.data     0.025582                       # mshr miss rate for overall accesses
system.cpu.dcache.overall_mshr_miss_rate::total     0.025582                       # mshr miss rate for overall accesses
system.cpu.dcache.demand_avg_mshr_miss_latency::.cpu.data 72340.231769                       # average overall mshr miss latency
system.cpu.dcache.demand_avg_mshr_miss_latency::total 72340.231769                       # average overall mshr miss latency
system.cpu.dcache.overall_avg_mshr_miss_latency::.cpu.data 72335.952810                       # average overall mshr miss latency
system.cpu.dcache.overall_avg_mshr_miss_latency::total 72335.952810                       # average overall mshr miss latency
system.cpu.dcache.replacements                  17839                       # number of replacements
system.cpu.dcache.ReadReq_hits::.cpu.data       522020                       # number of ReadReq hits
system.cpu.dcache.ReadReq_hits::total          522020                       # number of ReadReq hits
system.cpu.dcache.ReadReq_misses::.cpu.data         1760                       # number of ReadReq misses
system.cpu.dcache.ReadReq_misses::total          1760                       # number of ReadReq misses
system.cpu.dcache.ReadReq_miss_latency::.cpu.data    108359000                       # number of ReadReq miss cycles
system.cpu.dcache.ReadReq_miss_latency::total    108359000                       # number of ReadReq miss cycles
system.cpu.dcache.ReadReq_accesses::.cpu.data       523780                       # number of ReadReq accesses(hits+misses)
system.cpu.dcache.ReadReq_accesses::total       523780                       # number of ReadReq accesses(hits+misses)
system.cpu.dcache.ReadReq_miss_rate::.cpu.data     0.003360                       # miss rate for ReadReq accesses
system.cpu.dcache.ReadReq_miss_rate::total     0.003360                       # miss rate for ReadReq accesses
system.cpu.dcache.ReadReq_avg_miss_latency::.cpu.data 61567.613636                       # average ReadReq miss latency
system.cpu.dcache.ReadReq_avg_miss_latency::total 61567.613636                       # average ReadReq miss latency
system.cpu.dcache.ReadReq_mshr_hits::.cpu.data         1176                       # number of ReadReq MSHR hits
system.cpu.dcache.ReadReq_mshr_hits::total         1176                       # number of ReadReq MSHR hits
system.cpu.dcache.ReadReq_mshr_misses::.cpu.data          584                       # number of ReadReq MSHR misses
system.cpu.dcache.ReadReq_mshr_misses::total          584                       # number of ReadReq MSHR misses
system.cpu.dcache.ReadReq_mshr_miss_latency::.cpu.data     31976500                       # number of ReadReq MSHR miss cycles
system.cpu.dcache.ReadReq_mshr_miss_latency::total     31976500                       # number of ReadReq MSHR miss cycles
system.cpu.dcache.ReadReq_mshr_miss_rate::.cpu.data     0.001115                       # mshr miss rate for ReadReq accesses
system.cpu.dcache.ReadReq_mshr_miss_rate::total     0.001115                       # mshr miss rate for ReadReq accesses
system.cpu.dcache.ReadReq_avg_mshr_miss_latency::.cpu.data 54754.280822                       # average ReadReq mshr miss latency
system.cpu.dcache.ReadReq_avg_mshr_miss_latency::total 54754.280822                       # average ReadReq mshr miss latency
system.cpu.dcache.WriteReq_hits::.cpu.data        76666                       # number of WriteReq hits
system.cpu.dcache.WriteReq_hits::total          76666                       # number of WriteReq hits
system.cpu.dcache.WriteReq_misses::.cpu.data       135160                       # number of WriteReq misses
system.cpu.dcache.WriteReq_misses::total       135160                       # number of WriteReq misses
system.cpu.dcache.WriteReq_miss_latency::.cpu.data   8421253395                       # number of WriteReq miss cycles
system.cpu.dcache.WriteReq_miss_latency::total   8421253395                       # number of WriteReq miss cycles
system.cpu.dcache.WriteReq_accesses::.cpu.data       211826                       # number of WriteReq accesses(hits+misses)
system.cpu.dcache.WriteReq_accesses::total       211826                       # number of WriteReq accesses(hits+misses)
system.cpu.dcache.WriteReq_miss_rate::.cpu.data     0.638071                       # miss rate for WriteReq accesses
system.cpu.dcache.WriteReq_miss_rate::total     0.638071                       # miss rate for WriteReq accesses
system.cpu.dcache.WriteReq_avg_miss_latency::.cpu.data 62305.810854                       # average WriteReq miss latency
system.cpu.dcache.WriteReq_avg_miss_latency::total 62305.810854                       # average WriteReq miss latency
system.cpu.dcache.WriteReq_mshr_hits::.cpu.data       118058                       # number of WriteReq MSHR hits
system.cpu.dcache.WriteReq_mshr_hits::total       118058                       # number of WriteReq MSHR hits
system.cpu.dcache.WriteReq_mshr_misses::.cpu.data        17102                       # number of WriteReq MSHR misses
system.cpu.dcache.WriteReq_mshr_misses::total        17102                       # number of WriteReq MSHR misses
system.cpu.dcache.WriteReq_mshr_miss_latency::.cpu.data   1295372490                       # number of WriteReq MSHR miss cycles
system.cpu.dcache.WriteReq_mshr_miss_latency::total   1295372490                       # number of WriteReq MSHR miss cycles
system.cpu.dcache.WriteReq_mshr_miss_rate::.cpu.data     0.080736                       # mshr miss rate for WriteReq accesses
system.cpu.dcache.WriteReq_mshr_miss_rate::total     0.080736                       # mshr miss rate for WriteReq accesses
system.cpu.dcache.WriteReq_avg_mshr_miss_latency::.cpu.data 75743.918255                       # average WriteReq mshr miss latency
system.cpu.dcache.WriteReq_avg_mshr_miss_latency::total 75743.918255                       # average WriteReq mshr miss latency
system.cpu.dcache.SoftPFReq_hits::.cpu.data          347                       # number of SoftPFReq hits
system.cpu.dcache.SoftPFReq_hits::total           347                       # number of SoftPFReq hits
system.cpu.dcache.SoftPFReq_misses::.cpu.data           13                       # number of SoftPFReq misses
system.cpu.dcache.SoftPFReq_misses::total           13                       # number of SoftPFReq misses
system.cpu.dcache.SoftPFReq_accesses::.cpu.data          360                       # number of SoftPFReq accesses(hits+misses)
system.cpu.dcache.SoftPFReq_accesses::total          360                       # number of SoftPFReq accesses(hits+misses)
system.cpu.dcache.SoftPFReq_miss_rate::.cpu.data     0.036111                       # miss rate for SoftPFReq accesses
system.cpu.dcache.SoftPFReq_miss_rate::total     0.036111                       # miss rate for SoftPFReq accesses
system.cpu.dcache.SoftPFReq_mshr_misses::.cpu.data            5                       # number of SoftPFReq MSHR misses
system.cpu.dcache.SoftPFReq_mshr_misses::total            5                       # number of SoftPFReq MSHR misses
system.cpu.dcache.SoftPFReq_mshr_miss_latency::.cpu.data       281000                       # number of SoftPFReq MSHR miss cycles
system.cpu.dcache.SoftPFReq_mshr_miss_latency::total       281000                       # number of SoftPFReq MSHR miss cycles
system.cpu.dcache.SoftPFReq_mshr_miss_rate::.cpu.data     0.013889                       # mshr miss rate for SoftPFReq accesses
system.cpu.dcache.SoftPFReq_mshr_miss_rate::total     0.013889                       # mshr miss rate for SoftPFReq accesses
system.cpu.dcache.SoftPFReq_avg_mshr_miss_latency::.cpu.data        56200                       # average SoftPFReq mshr miss latency
system.cpu.dcache.SoftPFReq_avg_mshr_miss_latency::total        56200                       # average SoftPFReq mshr miss latency
system.cpu.dcache.WriteLineReq_hits::.cpu.data           92                       # number of WriteLineReq hits
system.cpu.dcache.WriteLineReq_hits::total           92                       # number of WriteLineReq hits
system.cpu.dcache.WriteLineReq_misses::.cpu.data         1169                       # number of WriteLineReq misses
system.cpu.dcache.WriteLineReq_misses::total         1169                       # number of WriteLineReq misses
system.cpu.dcache.WriteLineReq_miss_latency::.cpu.data     37795080                       # number of WriteLineReq miss cycles
system.cpu.dcache.WriteLineReq_miss_latency::total     37795080                       # number of WriteLineReq miss cycles
system.cpu.dcache.WriteLineReq_accesses::.cpu.data         1261                       # number of WriteLineReq accesses(hits+misses)
system.cpu.dcache.WriteLineReq_accesses::total         1261                       # number of WriteLineReq accesses(hits+misses)
system.cpu.dcache.WriteLineReq_miss_rate::.cpu.data     0.927042                       # miss rate for WriteLineReq accesses
system.cpu.dcache.WriteLineReq_miss_rate::total     0.927042                       # miss rate for WriteLineReq accesses
system.cpu.dcache.WriteLineReq_avg_miss_latency::.cpu.data 32331.120616                       # average WriteLineReq miss latency
system.cpu.dcache.WriteLineReq_avg_miss_latency::total 32331.120616                       # average WriteLineReq miss latency
system.cpu.dcache.WriteLineReq_mshr_misses::.cpu.data         1169                       # number of WriteLineReq MSHR misses
system.cpu.dcache.WriteLineReq_mshr_misses::total         1169                       # number of WriteLineReq MSHR misses
system.cpu.dcache.WriteLineReq_mshr_miss_latency::.cpu.data     36626080                       # number of WriteLineReq MSHR miss cycles
system.cpu.dcache.WriteLineReq_mshr_miss_latency::total     36626080                       # number of WriteLineReq MSHR miss cycles
system.cpu.dcache.WriteLineReq_mshr_miss_rate::.cpu.data     0.927042                       # mshr miss rate for WriteLineReq accesses
system.cpu.dcache.WriteLineReq_mshr_miss_rate::total     0.927042                       # mshr miss rate for WriteLineReq accesses
system.cpu.dcache.WriteLineReq_avg_mshr_miss_latency::.cpu.data 31331.120616                       # average WriteLineReq mshr miss latency
system.cpu.dcache.WriteLineReq_avg_mshr_miss_latency::total 31331.120616                       # average WriteLineReq mshr miss latency
system.cpu.dcache.LoadLockedReq_hits::.cpu.data          305                       # number of LoadLockedReq hits
system.cpu.dcache.LoadLockedReq_hits::total          305                       # number of LoadLockedReq hits
system.cpu.dcache.LoadLockedReq_misses::.cpu.data            6                       # number of LoadLockedReq misses
system.cpu.dcache.LoadLockedReq_misses::total            6                       # number of LoadLockedReq misses
system.cpu.dcache.LoadLockedReq_miss_latency::.cpu.data       256500                       # number of LoadLockedReq miss cycles
system.cpu.dcache.LoadLockedReq_miss_latency::total       256500                       # number of LoadLockedReq miss cycles
system.cpu.dcache.LoadLockedReq_accesses::.cpu.data          311                       # number of LoadLockedReq accesses(hits+misses)
system.cpu.dcache.LoadLockedReq_accesses::total          311                       # number of LoadLockedReq accesses(hits+misses)
system.cpu.dcache.LoadLockedReq_miss_rate::.cpu.data     0.019293                       # miss rate for LoadLockedReq accesses
system.cpu.dcache.LoadLockedReq_miss_rate::total     0.019293                       # miss rate for LoadLockedReq accesses
system.cpu.dcache.LoadLockedReq_avg_miss_latency::.cpu.data        42750                       # average LoadLockedReq miss latency
system.cpu.dcache.LoadLockedReq_avg_miss_latency::total        42750                       # average LoadLockedReq miss latency
system.cpu.dcache.LoadLockedReq_mshr_hits::.cpu.data            3                       # number of LoadLockedReq MSHR hits
system.cpu.dcache.LoadLockedReq_mshr_hits::total            3                       # number of LoadLockedReq MSHR hits
system.cpu.dcache.LoadLockedReq_mshr_misses::.cpu.data            3                       # number of LoadLockedReq MSHR misses
system.cpu.dcache.LoadLockedReq_mshr_misses::total            3                       # number of LoadLockedReq MSHR misses
system.cpu.dcache.LoadLockedReq_mshr_miss_latency::.cpu.data       211000                       # number of LoadLockedReq MSHR miss cycles
system.cpu.dcache.LoadLockedReq_mshr_miss_latency::total       211000                       # number of LoadLockedReq MSHR miss cycles
system.cpu.dcache.LoadLockedReq_mshr_miss_rate::.cpu.data     0.009646                       # mshr miss rate for LoadLockedReq accesses
system.cpu.dcache.LoadLockedReq_mshr_miss_rate::total     0.009646                       # mshr miss rate for LoadLockedReq accesses
system.cpu.dcache.LoadLockedReq_avg_mshr_miss_latency::.cpu.data 70333.333333                       # average LoadLockedReq mshr miss latency
system.cpu.dcache.LoadLockedReq_avg_mshr_miss_latency::total 70333.333333                       # average LoadLockedReq mshr miss latency
system.cpu.dcache.StoreCondReq_hits::.cpu.data          278                       # number of StoreCondReq hits
system.cpu.dcache.StoreCondReq_hits::total          278                       # number of StoreCondReq hits
system.cpu.dcache.StoreCondReq_accesses::.cpu.data          278                       # number of StoreCondReq accesses(hits+misses)
system.cpu.dcache.StoreCondReq_accesses::total          278                       # number of StoreCondReq accesses(hits+misses)
system.cpu.dcache.power_state.pwrStateResidencyTicks::UNDEFINED   1167478500                       # Cumulative time (in ticks) in various power states
system.cpu.dcache.tags.tagsinuse           772.942093                       # Cycle average of tags in use
system.cpu.dcache.tags.total_refs              618571                       # Total number of references to valid blocks.
system.cpu.dcache.tags.sampled_refs             18863                       # Sample count of references to valid blocks.
system.cpu.dcache.tags.avg_refs             32.792822                       # Average number of references to valid blocks.
system.cpu.dcache.tags.warmup_cycle            195500                       # Cycle when the warmup percentage was hit.
system.cpu.dcache.tags.occ_blocks::.cpu.data   772.942093                       # Average occupied blocks per requestor
system.cpu.dcache.tags.occ_percent::.cpu.data     0.754826                       # Average percentage of cache occupancy
system.cpu.dcache.tags.occ_percent::total     0.754826                       # Average percentage of cache occupancy
system.cpu.dcache.tags.occ_task_id_blocks::1024         1024                       # Occupied blocks per task id
system.cpu.dcache.tags.age_task_id_blocks_1024::0          170                       # Occupied blocks per task id
system.cpu.dcache.tags.age_task_id_blocks_1024::1          854                       # Occupied blocks per task id
system.cpu.dcache.tags.occ_task_id_percent::1024            1                       # Percentage of cache occupancy per task id
system.cpu.dcache.tags.tag_accesses           1494495                       # Number of tag accesses
system.cpu.dcache.tags.data_accesses          1494495                       # Number of data accesses
system.cpu.dcache.tags.power_state.pwrStateResidencyTicks::UNDEFINED   1167478500                       # Cumulative time (in ticks) in various power states
system.cpu.power_state.pwrStateResidencyTicks::ON   1167478500                       # Cumulative time (in ticks) in various power states

---------- End Simulation Statistics   ----------
