
---------- Begin Simulation Statistics ----------
final_tick                                 7404039500                       # Number of ticks from beginning of simulation (restored from checkpoints and never reset)
host_inst_rate                                 176529                       # Simulator instruction rate (inst/s)
host_mem_usage                                 900860                       # Number of bytes of host memory used
host_op_rate                                   177008                       # Simulator op (including micro ops) rate (op/s)
host_seconds                                    56.65                       # Real time elapsed on the host
host_tick_rate                              130702535                       # Simulator tick rate (ticks/s)
sim_freq                                 1000000000000                       # Frequency of simulated ticks
sim_insts                                    10000002                       # Number of instructions simulated
sim_ops                                      10027169                       # Number of ops (including micro ops) simulated
sim_seconds                                  0.007404                       # Number of seconds simulated
sim_ticks                                  7404039500                       # Number of ticks simulated
system.cpu.branchPred.BTBCorrect                    0                       # Number of correct BTB predictions (this stat may not work properly.
system.cpu.branchPred.BTBHitPct             99.923716                       # BTB Hit Percentage
system.cpu.branchPred.BTBHits                 3010118                       # Number of BTB hits
system.cpu.branchPred.BTBLookups              3012416                       # Number of BTB lookups
system.cpu.branchPred.RASInCorrect                 12                       # Number of incorrect RAS predictions.
system.cpu.branchPred.condIncorrect             22812                       # Number of conditional branches incorrect
system.cpu.branchPred.condPredicted           3043144                       # Number of conditional branches predicted
system.cpu.branchPred.indirectHits               1711                       # Number of indirect target hits.
system.cpu.branchPred.indirectLookups            2659                       # Number of indirect predictor lookups.
system.cpu.branchPred.indirectMisses              948                       # Number of indirect misses.
system.cpu.branchPred.lookups                 3058189                       # Number of BP lookups
system.cpu.branchPred.usedRAS                    5858                       # Number of times the RAS was used to get a target.
system.cpu.branchPredindirectMispredicted          238                       # Number of mispredicted indirect branches.
system.cpu.cc_regfile_reads                   7999479                       # number of cc regfile reads
system.cpu.cc_regfile_writes                  8033415                       # number of cc regfile writes
system.cpu.commit.amos                              0                       # Number of atomic instructions committed
system.cpu.commit.branchMispredicts             22221                       # The number of times a branch was mispredicted
system.cpu.commit.branches                    2501415                       # Number of branches committed
system.cpu.commit.bw_lim_events                  8314                       # number cycles where commit BW limit reached
system.cpu.commit.commitNonSpecStalls             174                       # The number of times commit has been forced to stall to communicate backwards
system.cpu.commit.commitSquashedInsts          800930                       # The number of squashed insts skipped by commit
system.cpu.commit.committedInsts             10019633                       # Number of instructions committed
system.cpu.commit.committedOps               10046800                       # Number of ops (including micro ops) committed
system.cpu.commit.committed_per_cycle::samples     14611496                       # Number of insts commited each cycle
system.cpu.commit.committed_per_cycle::mean     0.687596                       # Number of insts commited each cycle
system.cpu.commit.committed_per_cycle::stdev     1.426563                       # Number of insts commited each cycle
system.cpu.commit.committed_per_cycle::underflows            0      0.00%      0.00% # Number of insts commited each cycle
system.cpu.commit.committed_per_cycle::0     11397268     78.00%     78.00% # Number of insts commited each cycle
system.cpu.commit.committed_per_cycle::1       713756      4.88%     82.89% # Number of insts commited each cycle
system.cpu.commit.committed_per_cycle::2       154106      1.05%     83.94% # Number of insts commited each cycle
system.cpu.commit.committed_per_cycle::3       435793      2.98%     86.92% # Number of insts commited each cycle
system.cpu.commit.committed_per_cycle::4      1876274     12.84%     99.77% # Number of insts commited each cycle
system.cpu.commit.committed_per_cycle::5        17154      0.12%     99.88% # Number of insts commited each cycle
system.cpu.commit.committed_per_cycle::6         1742      0.01%     99.89% # Number of insts commited each cycle
system.cpu.commit.committed_per_cycle::7         7089      0.05%     99.94% # Number of insts commited each cycle
system.cpu.commit.committed_per_cycle::8         8314      0.06%    100.00% # Number of insts commited each cycle
system.cpu.commit.committed_per_cycle::overflows            0      0.00%    100.00% # Number of insts commited each cycle
system.cpu.commit.committed_per_cycle::min_value            0                       # Number of insts commited each cycle
system.cpu.commit.committed_per_cycle::max_value            8                       # Number of insts commited each cycle
system.cpu.commit.committed_per_cycle::total     14611496                       # Number of insts commited each cycle
system.cpu.commit.fp_insts                          0                       # Number of committed floating point instructions.
system.cpu.commit.function_calls                 4620                       # Number of function calls committed.
system.cpu.commit.int_insts                   7546090                       # Number of committed integer instructions.
system.cpu.commit.loads                         35385                       # Number of loads committed
system.cpu.commit.membars                         138                       # Number of memory barriers committed
system.cpu.commit.op_class_0::No_OpClass            3      0.00%      0.00% # Class of committed instruction
system.cpu.commit.op_class_0::IntAlu          7555307     75.20%     75.20% # Class of committed instruction
system.cpu.commit.op_class_0::IntMult             384      0.00%     75.20% # Class of committed instruction
system.cpu.commit.op_class_0::IntDiv               94      0.00%     75.21% # Class of committed instruction
system.cpu.commit.op_class_0::FloatAdd              8      0.00%     75.21% # Class of committed instruction
system.cpu.commit.op_class_0::FloatCmp              0      0.00%     75.21% # Class of committed instruction
system.cpu.commit.op_class_0::FloatCvt              0      0.00%     75.21% # Class of committed instruction
system.cpu.commit.op_class_0::FloatMult             0      0.00%     75.21% # Class of committed instruction
system.cpu.commit.op_class_0::FloatMultAcc            0      0.00%     75.21% # Class of committed instruction
system.cpu.commit.op_class_0::FloatDiv              0      0.00%     75.21% # Class of committed instruction
system.cpu.commit.op_class_0::FloatMisc            32      0.00%     75.21% # Class of committed instruction
system.cpu.commit.op_class_0::FloatSqrt             0      0.00%     75.21% # Class of committed instruction
system.cpu.commit.op_class_0::SimdAdd              15      0.00%     75.21% # Class of committed instruction
system.cpu.commit.op_class_0::SimdAddAcc            0      0.00%     75.21% # Class of committed instruction
system.cpu.commit.op_class_0::SimdAlu              10      0.00%     75.21% # Class of committed instruction
system.cpu.commit.op_class_0::SimdCmp              12      0.00%     75.21% # Class of committed instruction
system.cpu.commit.op_class_0::SimdCvt               0      0.00%     75.21% # Class of committed instruction
system.cpu.commit.op_class_0::SimdMisc             72      0.00%     75.21% # Class of committed instruction
system.cpu.commit.op_class_0::SimdMult              0      0.00%     75.21% # Class of committed instruction
system.cpu.commit.op_class_0::SimdMultAcc            0      0.00%     75.21% # Class of committed instruction
system.cpu.commit.op_class_0::SimdShift             0      0.00%     75.21% # Class of committed instruction
system.cpu.commit.op_class_0::SimdShiftAcc            0      0.00%     75.21% # Class of committed instruction
system.cpu.commit.op_class_0::SimdDiv               0      0.00%     75.21% # Class of committed instruction
system.cpu.commit.op_class_0::SimdSqrt              0      0.00%     75.21% # Class of committed instruction
system.cpu.commit.op_class_0::SimdFloatAdd            0      0.00%     75.21% # Class of committed instruction
system.cpu.commit.op_class_0::SimdFloatAlu            0      0.00%     75.21% # Class of committed instruction
system.cpu.commit.op_class_0::SimdFloatCmp            0      0.00%     75.21% # Class of committed instruction
system.cpu.commit.op_class_0::SimdFloatCvt            0      0.00%     75.21% # Class of committed instruction
system.cpu.commit.op_class_0::SimdFloatDiv            0      0.00%     75.21% # Class of committed instruction
system.cpu.commit.op_class_0::SimdFloatMisc            0      0.00%     75.21% # Class of committed instruction
system.cpu.commit.op_class_0::SimdFloatMult            0      0.00%     75.21% # Class of committed instruction
system.cpu.commit.op_class_0::SimdFloatMultAcc            0      0.00%     75.21% # Class of committed instruction
system.cpu.commit.op_class_0::SimdFloatSqrt            0      0.00%     75.21% # Class of committed instruction
system.cpu.commit.op_class_0::SimdReduceAdd            0      0.00%     75.21% # Class of committed instruction
system.cpu.commit.op_class_0::SimdReduceAlu            0      0.00%     75.21% # Class of committed instruction
system.cpu.commit.op_class_0::SimdReduceCmp            0      0.00%     75.21% # Class of committed instruction
system.cpu.commit.op_class_0::SimdFloatReduceAdd            0      0.00%     75.21% # Class of committed instruction
system.cpu.commit.op_class_0::SimdFloatReduceCmp            0      0.00%     75.21% # Class of committed instruction
system.cpu.commit.op_class_0::SimdAes               0      0.00%     75.21% # Class of committed instruction
system.cpu.commit.op_class_0::SimdAesMix            0      0.00%     75.21% # Class of committed instruction
system.cpu.commit.op_class_0::SimdSha1Hash            0      0.00%     75.21% # Class of committed instruction
system.cpu.commit.op_class_0::SimdSha1Hash2            0      0.00%     75.21% # Class of committed instruction
system.cpu.commit.op_class_0::SimdSha256Hash            0      0.00%     75.21% # Class of committed instruction
system.cpu.commit.op_class_0::SimdSha256Hash2            0      0.00%     75.21% # Class of committed instruction
system.cpu.commit.op_class_0::SimdShaSigma2            0      0.00%     75.21% # Class of committed instruction
system.cpu.commit.op_class_0::SimdShaSigma3            0      0.00%     75.21% # Class of committed instruction
system.cpu.commit.op_class_0::SimdPredAlu            0      0.00%     75.21% # Class of committed instruction
system.cpu.commit.op_class_0::MemRead           35385      0.35%     75.56% # Class of committed instruction
system.cpu.commit.op_class_0::MemWrite        2455478     24.44%    100.00% # Class of committed instruction
system.cpu.commit.op_class_0::FloatMemRead            0      0.00%    100.00% # Class of committed instruction
system.cpu.commit.op_class_0::FloatMemWrite            0      0.00%    100.00% # Class of committed instruction
system.cpu.commit.op_class_0::IprAccess             0      0.00%    100.00% # Class of committed instruction
system.cpu.commit.op_class_0::InstPrefetch            0      0.00%    100.00% # Class of committed instruction
system.cpu.commit.op_class_0::total          10046800                       # Class of committed instruction
system.cpu.commit.refs                        2490863                       # Number of memory references committed
system.cpu.commit.swp_count                         0                       # Number of s/w prefetches committed
system.cpu.commit.vec_insts                      2101                       # Number of committed Vector instructions.
system.cpu.committedInsts                    10000002                       # Number of Instructions Simulated
system.cpu.committedOps                      10027169                       # Number of Ops (including micro ops) Simulated
system.cpu.cpi                               1.480808                       # CPI: Cycles Per Instruction
system.cpu.cpi_total                         1.480808                       # CPI: Total CPI of All Threads
system.cpu.decode.BlockedCycles              12633004                       # Number of cycles decode is blocked
system.cpu.decode.BranchMispred                   626                       # Number of times decode detected a branch misprediction
system.cpu.decode.BranchResolved              2787458                       # Number of times decode resolved a branch
system.cpu.decode.DecodedInsts               11379710                       # Number of instructions handled by decode
system.cpu.decode.IdleCycles                   425675                       # Number of cycles decode is idle
system.cpu.decode.RunCycles                   1079393                       # Number of cycles decode is running
system.cpu.decode.SquashCycles                  27044                       # Number of cycles decode is squashing
system.cpu.decode.SquashedInsts                  2140                       # Number of squashed instructions handled by decode
system.cpu.decode.UnblockCycles                557156                       # Number of cycles decode is unblocking
system.cpu.dtb.accesses                             0                       # DTB accesses
system.cpu.dtb.align_faults                         0                       # Number of TLB faults due to alignment restrictions
system.cpu.dtb.domain_faults                        0                       # Number of TLB faults due to domain restrictions
system.cpu.dtb.flush_entries                        0                       # Number of entries that have been flushed from TLB
system.cpu.dtb.flush_tlb                            0                       # Number of times complete TLB was flushed
system.cpu.dtb.flush_tlb_asid                       0                       # Number of times TLB was flushed by ASID
system.cpu.dtb.flush_tlb_mva                        0                       # Number of times TLB was flushed by MVA
system.cpu.dtb.flush_tlb_mva_asid                   0                       # Number of times TLB was flushed by MVA & ASID
system.cpu.dtb.hits                                 0                       # DTB hits
system.cpu.dtb.inst_accesses                        0                       # ITB inst accesses
system.cpu.dtb.inst_hits                            0                       # ITB inst hits
system.cpu.dtb.inst_misses                          0                       # ITB inst misses
system.cpu.dtb.misses                               0                       # DTB misses
system.cpu.dtb.perms_faults                         0                       # Number of TLB faults due to permissions restrictions
system.cpu.dtb.prefetch_faults                      0                       # Number of TLB faults due to prefetch
system.cpu.dtb.read_accesses                        0                       # DTB read accesses
system.cpu.dtb.read_hits                            0                       # DTB read hits
system.cpu.dtb.read_misses                          0                       # DTB read misses
system.cpu.dtb.stage2_mmu.stage2_tlb.accesses            0                       # DTB accesses
system.cpu.dtb.stage2_mmu.stage2_tlb.align_faults            0                       # Number of TLB faults due to alignment restrictions
system.cpu.dtb.stage2_mmu.stage2_tlb.domain_faults            0                       # Number of TLB faults due to domain restrictions
system.cpu.dtb.stage2_mmu.stage2_tlb.flush_entries            0                       # Number of entries that have been flushed from TLB
system.cpu.dtb.stage2_mmu.stage2_tlb.flush_tlb            0                       # Number of times complete TLB was flushed
system.cpu.dtb.stage2_mmu.stage2_tlb.flush_tlb_asid            0                       # Number of times TLB was flushed by ASID
system.cpu.dtb.stage2_mmu.stage2_tlb.flush_tlb_mva            0                       # Number of times TLB was flushed by MVA
system.cpu.dtb.stage2_mmu.stage2_tlb.flush_tlb_mva_asid            0                       # Number of times TLB was flushed by MVA & ASID
system.cpu.dtb.stage2_mmu.stage2_tlb.hits            0                       # DTB hits
system.cpu.dtb.stage2_mmu.stage2_tlb.inst_accesses            0                       # ITB inst accesses
system.cpu.dtb.stage2_mmu.stage2_tlb.inst_hits            0                       # ITB inst hits
system.cpu.dtb.stage2_mmu.stage2_tlb.inst_misses            0                       # ITB inst misses
system.cpu.dtb.stage2_mmu.stage2_tlb.misses            0                       # DTB misses
system.cpu.dtb.stage2_mmu.stage2_tlb.perms_faults            0                       # Number of TLB faults due to permissions restrictions
system.cpu.dtb.stage2_mmu.stage2_tlb.prefetch_faults            0                       # Number of TLB faults due to prefetch
system.cpu.dtb.stage2_mmu.stage2_tlb.read_accesses            0                       # DTB read accesses
system.cpu.dtb.stage2_mmu.stage2_tlb.read_hits            0                       # DTB read hits
system.cpu.dtb.stage2_mmu.stage2_tlb.read_misses            0                       # DTB read misses
system.cpu.dtb.stage2_mmu.stage2_tlb.walker.walkRequestOrigin_Requested::Data            0                       # Table walker requests started/completed, data/inst
system.cpu.dtb.stage2_mmu.stage2_tlb.walker.walkRequestOrigin_Requested::Inst            0                       # Table walker requests started/completed, data/inst
system.cpu.dtb.stage2_mmu.stage2_tlb.walker.walkRequestOrigin_Requested::total            0                       # Table walker requests started/completed, data/inst
system.cpu.dtb.stage2_mmu.stage2_tlb.walker.walkRequestOrigin_Completed::Data            0                       # Table walker requests started/completed, data/inst
system.cpu.dtb.stage2_mmu.stage2_tlb.walker.walkRequestOrigin_Completed::Inst            0                       # Table walker requests started/completed, data/inst
system.cpu.dtb.stage2_mmu.stage2_tlb.walker.walkRequestOrigin_Completed::total            0                       # Table walker requests started/completed, data/inst
system.cpu.dtb.stage2_mmu.stage2_tlb.walker.walkRequestOrigin::total            0                       # Table walker requests started/completed, data/inst
system.cpu.dtb.stage2_mmu.stage2_tlb.walker.walks            0                       # Table walker walks requested
system.cpu.dtb.stage2_mmu.stage2_tlb.write_accesses            0                       # DTB write accesses
system.cpu.dtb.stage2_mmu.stage2_tlb.write_hits            0                       # DTB write hits
system.cpu.dtb.stage2_mmu.stage2_tlb.write_misses            0                       # DTB write misses
system.cpu.dtb.walker.walkRequestOrigin_Requested::Data            0                       # Table walker requests started/completed, data/inst
system.cpu.dtb.walker.walkRequestOrigin_Requested::Inst            0                       # Table walker requests started/completed, data/inst
system.cpu.dtb.walker.walkRequestOrigin_Requested::total            0                       # Table walker requests started/completed, data/inst
system.cpu.dtb.walker.walkRequestOrigin_Completed::Data            0                       # Table walker requests started/completed, data/inst
system.cpu.dtb.walker.walkRequestOrigin_Completed::Inst            0                       # Table walker requests started/completed, data/inst
system.cpu.dtb.walker.walkRequestOrigin_Completed::total            0                       # Table walker requests started/completed, data/inst
system.cpu.dtb.walker.walkRequestOrigin::total            0                       # Table walker requests started/completed, data/inst
system.cpu.dtb.walker.walks                         0                       # Table walker walks requested
system.cpu.dtb.write_accesses                       0                       # DTB write accesses
system.cpu.dtb.write_hits                           0                       # DTB write hits
system.cpu.dtb.write_misses                         0                       # DTB write misses
system.cpu.fetch.Branches                     3058189                       # Number of branches that fetch encountered
system.cpu.fetch.CacheLines                     33241                       # Number of cache lines fetched
system.cpu.fetch.Cycles                      14574621                       # Number of cycles fetch has run and was not squashing or blocked
system.cpu.fetch.IcacheSquashes                  1478                       # Number of outstanding Icache misses that were squashed
system.cpu.fetch.Insts                       12249000                       # Number of instructions fetch has processed
system.cpu.fetch.MiscStallCycles                   23                       # Number of cycles fetch has spent waiting on interrupts, or bad addresses, or out of MSHRs
system.cpu.fetch.PendingTrapStallCycles           132                       # Number of stall cycles due to pending traps
system.cpu.fetch.SquashCycles                   55314                       # Number of cycles fetch has spent squashing
system.cpu.fetch.branchRate                  0.206522                       # Number of branch fetches per cycle
system.cpu.fetch.icacheStallCycles             119839                       # Number of cycles fetch is stalled on an Icache miss
system.cpu.fetch.predictedBranches            3017687                       # Number of branches that fetch has predicted taken
system.cpu.fetch.rate                        0.827184                       # Number of inst fetches per cycle
system.cpu.fetch.rateDist::samples           14722272                       # Number of instructions fetched each cycle (Total)
system.cpu.fetch.rateDist::mean              0.834296                       # Number of instructions fetched each cycle (Total)
system.cpu.fetch.rateDist::stdev             1.650327                       # Number of instructions fetched each cycle (Total)
system.cpu.fetch.rateDist::underflows               0      0.00%      0.00% # Number of instructions fetched each cycle (Total)
system.cpu.fetch.rateDist::0                 11684875     79.37%     79.37% # Number of instructions fetched each cycle (Total)
system.cpu.fetch.rateDist::1                     4637      0.03%     79.40% # Number of instructions fetched each cycle (Total)
system.cpu.fetch.rateDist::2                     4841      0.03%     79.43% # Number of instructions fetched each cycle (Total)
system.cpu.fetch.rateDist::3                     6171      0.04%     79.47% # Number of instructions fetched each cycle (Total)
system.cpu.fetch.rateDist::4                  2974943     20.21%     99.68% # Number of instructions fetched each cycle (Total)
system.cpu.fetch.rateDist::5                     5095      0.03%     99.72% # Number of instructions fetched each cycle (Total)
system.cpu.fetch.rateDist::6                     2344      0.02%     99.73% # Number of instructions fetched each cycle (Total)
system.cpu.fetch.rateDist::7                     4339      0.03%     99.76% # Number of instructions fetched each cycle (Total)
system.cpu.fetch.rateDist::8                    35027      0.24%    100.00% # Number of instructions fetched each cycle (Total)
system.cpu.fetch.rateDist::overflows                0      0.00%    100.00% # Number of instructions fetched each cycle (Total)
system.cpu.fetch.rateDist::min_value                0                       # Number of instructions fetched each cycle (Total)
system.cpu.fetch.rateDist::max_value                8                       # Number of instructions fetched each cycle (Total)
system.cpu.fetch.rateDist::total             14722272                       # Number of instructions fetched each cycle (Total)
system.cpu.icache.prefetcher.num_hwpf_issued        33980                       # number of hwpf issued
system.cpu.icache.prefetcher.pfBufferHit        65631                       # number of redundant prefetches already in prefetch queue
system.cpu.icache.prefetcher.pfIdentified       109974                       # number of prefetch candidates identified
system.cpu.icache.prefetcher.pfInCache              0                       # number of redundant prefetches already in cache/mshr dropped
system.cpu.icache.prefetcher.pfRemovedFull         1251                       # number of prefetches dropped due to prefetch queue size
system.cpu.icache.prefetcher.pfSpanPage       2282701                       # number of prefetches that crossed the page
system.cpu.idleCycles                           85808                       # Total number of cycles that the CPU has spent unscheduled due to idling
system.cpu.iew.branchMispredicts                22920                       # Number of branch mispredicts detected at execute
system.cpu.iew.exec_branches                  2686033                       # Number of branches executed
system.cpu.iew.exec_nop                         20739                       # number of nop insts executed
system.cpu.iew.exec_rate                     0.731536                       # Inst execution rate
system.cpu.iew.exec_refs                      2700992                       # number of memory reference insts executed
system.cpu.iew.exec_stores                    2660790                       # Number of stores executed
system.cpu.iew.exec_swp                             0                       # number of swp insts executed
system.cpu.iew.iewBlockCycles                   84236                       # Number of cycles IEW is blocking
system.cpu.iew.iewDispLoadInsts                 41130                       # Number of dispatched load instructions
system.cpu.iew.iewDispNonSpecInsts                206                       # Number of dispatched non-speculative instructions
system.cpu.iew.iewDispSquashedInsts             28397                       # Number of squashed instructions skipped by dispatch
system.cpu.iew.iewDispStoreInsts              2684777                       # Number of dispatched store instructions
system.cpu.iew.iewDispatchedInsts            10988039                       # Number of instructions dispatched to IQ
system.cpu.iew.iewExecLoadInsts                 40202                       # Number of load instructions executed
system.cpu.iew.iewExecSquashedInsts             42263                       # Number of squashed instructions skipped in execute
system.cpu.iew.iewExecutedInsts              10832640                       # Number of executed instructions
system.cpu.iew.iewIQFullEvents                     13                       # Number of times the IQ has become full, causing a stall
system.cpu.iew.iewIdleCycles                        0                       # Number of cycles IEW is idle
system.cpu.iew.iewLSQFullEvents                   464                       # Number of times the LSQ has become full, causing a stall
system.cpu.iew.iewSquashCycles                  27044                       # Number of cycles IEW is squashing
system.cpu.iew.iewUnblockCycles                   471                       # Number of cycles IEW is unblocking
system.cpu.iew.lsq.thread0.blockedLoads             0                       # Number of blocked loads due to partial load-store forwarding
system.cpu.iew.lsq.thread0.cacheBlocked             0                       # Number of times an access to memory failed due to the cache being blocked
system.cpu.iew.lsq.thread0.forwLoads             2535                       # Number of loads that had data forwarded from stores
system.cpu.iew.lsq.thread0.ignoredResponses            7                       # Number of memory responses ignored because the instruction is squashed
system.cpu.iew.lsq.thread0.invAddrLoads             0                       # Number of loads ignored due to an invalid address
system.cpu.iew.lsq.thread0.invAddrSwpfs             0                       # Number of software prefetches ignored due to an invalid address
system.cpu.iew.lsq.thread0.memOrderViolation           39                       # Number of memory ordering violations
system.cpu.iew.lsq.thread0.rescheduledLoads          960                       # Number of loads that were rescheduled
system.cpu.iew.lsq.thread0.squashedLoads         5745                       # Number of loads squashed
system.cpu.iew.lsq.thread0.squashedStores       229295                       # Number of stores squashed
system.cpu.iew.memOrderViolationEvents             39                       # Number of memory order violations
system.cpu.iew.predictedNotTakenIncorrect         1854                       # Number of branches that were predicted not taken incorrectly
system.cpu.iew.predictedTakenIncorrect          21066                       # Number of branches that were predicted taken incorrectly
system.cpu.iew.wb_consumers                  14921760                       # num instructions consuming a value
system.cpu.iew.wb_count                      10711037                       # cumulative count of insts written-back
system.cpu.iew.wb_fanout                     0.363966                       # average fanout of values written-back
system.cpu.iew.wb_producers                   5431012                       # num instructions producing a value
system.cpu.iew.wb_rate                       0.723324                       # insts written-back per cycle
system.cpu.iew.wb_sent                       10830585                       # cumulative count of insts sent to commit
system.cpu.int_regfile_reads                 13522087                       # number of integer regfile reads
system.cpu.int_regfile_writes                 5494327                       # number of integer regfile writes
system.cpu.ipc                               0.675307                       # IPC: Instructions Per Cycle
system.cpu.ipc_total                         0.675307                       # IPC: Total IPC of All Threads
system.cpu.iq.FU_type_0::No_OpClass                26      0.00%      0.00% # Type of FU issued
system.cpu.iq.FU_type_0::IntAlu               8161167     75.05%     75.05% # Type of FU issued
system.cpu.iq.FU_type_0::IntMult                  386      0.00%     75.05% # Type of FU issued
system.cpu.iq.FU_type_0::IntDiv                    96      0.00%     75.05% # Type of FU issued
system.cpu.iq.FU_type_0::FloatAdd                  11      0.00%     75.05% # Type of FU issued
system.cpu.iq.FU_type_0::FloatCmp                   0      0.00%     75.05% # Type of FU issued
system.cpu.iq.FU_type_0::FloatCvt                   0      0.00%     75.05% # Type of FU issued
system.cpu.iq.FU_type_0::FloatMult                  0      0.00%     75.05% # Type of FU issued
system.cpu.iq.FU_type_0::FloatMultAcc               0      0.00%     75.05% # Type of FU issued
system.cpu.iq.FU_type_0::FloatDiv                   0      0.00%     75.05% # Type of FU issued
system.cpu.iq.FU_type_0::FloatMisc                 53      0.00%     75.05% # Type of FU issued
system.cpu.iq.FU_type_0::FloatSqrt                  0      0.00%     75.05% # Type of FU issued
system.cpu.iq.FU_type_0::SimdAdd                   21      0.00%     75.05% # Type of FU issued
system.cpu.iq.FU_type_0::SimdAddAcc                 0      0.00%     75.05% # Type of FU issued
system.cpu.iq.FU_type_0::SimdAlu                   14      0.00%     75.05% # Type of FU issued
system.cpu.iq.FU_type_0::SimdCmp                   16      0.00%     75.05% # Type of FU issued
system.cpu.iq.FU_type_0::SimdCvt                    0      0.00%     75.05% # Type of FU issued
system.cpu.iq.FU_type_0::SimdMisc                  80      0.00%     75.05% # Type of FU issued
system.cpu.iq.FU_type_0::SimdMult                   0      0.00%     75.05% # Type of FU issued
system.cpu.iq.FU_type_0::SimdMultAcc                0      0.00%     75.05% # Type of FU issued
system.cpu.iq.FU_type_0::SimdShift                  0      0.00%     75.05% # Type of FU issued
system.cpu.iq.FU_type_0::SimdShiftAcc               0      0.00%     75.05% # Type of FU issued
system.cpu.iq.FU_type_0::SimdDiv                    0      0.00%     75.05% # Type of FU issued
system.cpu.iq.FU_type_0::SimdSqrt                   0      0.00%     75.05% # Type of FU issued
system.cpu.iq.FU_type_0::SimdFloatAdd               0      0.00%     75.05% # Type of FU issued
system.cpu.iq.FU_type_0::SimdFloatAlu               0      0.00%     75.05% # Type of FU issued
system.cpu.iq.FU_type_0::SimdFloatCmp               0      0.00%     75.05% # Type of FU issued
system.cpu.iq.FU_type_0::SimdFloatCvt               0      0.00%     75.05% # Type of FU issued
system.cpu.iq.FU_type_0::SimdFloatDiv               0      0.00%     75.05% # Type of FU issued
system.cpu.iq.FU_type_0::SimdFloatMisc              0      0.00%     75.05% # Type of FU issued
system.cpu.iq.FU_type_0::SimdFloatMult              0      0.00%     75.05% # Type of FU issued
system.cpu.iq.FU_type_0::SimdFloatMultAcc            0      0.00%     75.05% # Type of FU issued
system.cpu.iq.FU_type_0::SimdFloatSqrt              0      0.00%     75.05% # Type of FU issued
system.cpu.iq.FU_type_0::SimdReduceAdd              0      0.00%     75.05% # Type of FU issued
system.cpu.iq.FU_type_0::SimdReduceAlu              0      0.00%     75.05% # Type of FU issued
system.cpu.iq.FU_type_0::SimdReduceCmp              0      0.00%     75.05% # Type of FU issued
system.cpu.iq.FU_type_0::SimdFloatReduceAdd            0      0.00%     75.05% # Type of FU issued
system.cpu.iq.FU_type_0::SimdFloatReduceCmp            0      0.00%     75.05% # Type of FU issued
system.cpu.iq.FU_type_0::SimdAes                    0      0.00%     75.05% # Type of FU issued
system.cpu.iq.FU_type_0::SimdAesMix                 0      0.00%     75.05% # Type of FU issued
system.cpu.iq.FU_type_0::SimdSha1Hash               0      0.00%     75.05% # Type of FU issued
system.cpu.iq.FU_type_0::SimdSha1Hash2              0      0.00%     75.05% # Type of FU issued
system.cpu.iq.FU_type_0::SimdSha256Hash             0      0.00%     75.05% # Type of FU issued
system.cpu.iq.FU_type_0::SimdSha256Hash2            0      0.00%     75.05% # Type of FU issued
system.cpu.iq.FU_type_0::SimdShaSigma2              0      0.00%     75.05% # Type of FU issued
system.cpu.iq.FU_type_0::SimdShaSigma3              0      0.00%     75.05% # Type of FU issued
system.cpu.iq.FU_type_0::SimdPredAlu                0      0.00%     75.05% # Type of FU issued
system.cpu.iq.FU_type_0::MemRead                40994      0.38%     75.43% # Type of FU issued
system.cpu.iq.FU_type_0::MemWrite             2672043     24.57%    100.00% # Type of FU issued
system.cpu.iq.FU_type_0::FloatMemRead               0      0.00%    100.00% # Type of FU issued
system.cpu.iq.FU_type_0::FloatMemWrite              0      0.00%    100.00% # Type of FU issued
system.cpu.iq.FU_type_0::IprAccess                  0      0.00%    100.00% # Type of FU issued
system.cpu.iq.FU_type_0::InstPrefetch               0      0.00%    100.00% # Type of FU issued
system.cpu.iq.FU_type_0::total               10874907                       # Type of FU issued
system.cpu.iq.fp_alu_accesses                       0                       # Number of floating point alu accesses
system.cpu.iq.fp_inst_queue_reads                   0                       # Number of floating instruction queue reads
system.cpu.iq.fp_inst_queue_wakeup_accesses            0                       # Number of floating instruction queue wakeup accesses
system.cpu.iq.fp_inst_queue_writes                  0                       # Number of floating instruction queue writes
system.cpu.iq.fu_busy_cnt                        3419                       # FU busy when requested
system.cpu.iq.fu_busy_rate                   0.000314                       # FU busy rate (busy events/executed inst)
system.cpu.iq.fu_full::No_OpClass                   0      0.00%      0.00% # attempts to use FU when none available
system.cpu.iq.fu_full::IntAlu                     925     27.05%     27.05% # attempts to use FU when none available
system.cpu.iq.fu_full::IntMult                      2      0.06%     27.11% # attempts to use FU when none available
system.cpu.iq.fu_full::IntDiv                       0      0.00%     27.11% # attempts to use FU when none available
system.cpu.iq.fu_full::FloatAdd                     0      0.00%     27.11% # attempts to use FU when none available
system.cpu.iq.fu_full::FloatCmp                     0      0.00%     27.11% # attempts to use FU when none available
system.cpu.iq.fu_full::FloatCvt                     0      0.00%     27.11% # attempts to use FU when none available
system.cpu.iq.fu_full::FloatMult                    0      0.00%     27.11% # attempts to use FU when none available
system.cpu.iq.fu_full::FloatMultAcc                 0      0.00%     27.11% # attempts to use FU when none available
system.cpu.iq.fu_full::FloatDiv                     0      0.00%     27.11% # attempts to use FU when none available
system.cpu.iq.fu_full::FloatMisc                    0      0.00%     27.11% # attempts to use FU when none available
system.cpu.iq.fu_full::FloatSqrt                    0      0.00%     27.11% # attempts to use FU when none available
system.cpu.iq.fu_full::SimdAdd                      0      0.00%     27.11% # attempts to use FU when none available
system.cpu.iq.fu_full::SimdAddAcc                   0      0.00%     27.11% # attempts to use FU when none available
system.cpu.iq.fu_full::SimdAlu                      1      0.03%     27.14% # attempts to use FU when none available
system.cpu.iq.fu_full::SimdCmp                      2      0.06%     27.20% # attempts to use FU when none available
system.cpu.iq.fu_full::SimdCvt                      0      0.00%     27.20% # attempts to use FU when none available
system.cpu.iq.fu_full::SimdMisc                     0      0.00%     27.20% # attempts to use FU when none available
system.cpu.iq.fu_full::SimdMult                     0      0.00%     27.20% # attempts to use FU when none available
system.cpu.iq.fu_full::SimdMultAcc                  0      0.00%     27.20% # attempts to use FU when none available
system.cpu.iq.fu_full::SimdShift                    0      0.00%     27.20% # attempts to use FU when none available
system.cpu.iq.fu_full::SimdShiftAcc                 0      0.00%     27.20% # attempts to use FU when none available
system.cpu.iq.fu_full::SimdDiv                      0      0.00%     27.20% # attempts to use FU when none available
system.cpu.iq.fu_full::SimdSqrt                     0      0.00%     27.20% # attempts to use FU when none available
system.cpu.iq.fu_full::SimdFloatAdd                 0      0.00%     27.20% # attempts to use FU when none available
system.cpu.iq.fu_full::SimdFloatAlu                 0      0.00%     27.20% # attempts to use FU when none available
system.cpu.iq.fu_full::SimdFloatCmp                 0      0.00%     27.20% # attempts to use FU when none available
system.cpu.iq.fu_full::SimdFloatCvt                 0      0.00%     27.20% # attempts to use FU when none available
system.cpu.iq.fu_full::SimdFloatDiv                 0      0.00%     27.20% # attempts to use FU when none available
system.cpu.iq.fu_full::SimdFloatMisc                0      0.00%     27.20% # attempts to use FU when none available
system.cpu.iq.fu_full::SimdFloatMult                0      0.00%     27.20% # attempts to use FU when none available
system.cpu.iq.fu_full::SimdFloatMultAcc             0      0.00%     27.20% # attempts to use FU when none available
system.cpu.iq.fu_full::SimdFloatSqrt                0      0.00%     27.20% # attempts to use FU when none available
system.cpu.iq.fu_full::SimdReduceAdd                0      0.00%     27.20% # attempts to use FU when none available
system.cpu.iq.fu_full::SimdReduceAlu                0      0.00%     27.20% # attempts to use FU when none available
system.cpu.iq.fu_full::SimdReduceCmp                0      0.00%     27.20% # attempts to use FU when none available
system.cpu.iq.fu_full::SimdFloatReduceAdd            0      0.00%     27.20% # attempts to use FU when none available
system.cpu.iq.fu_full::SimdFloatReduceCmp            0      0.00%     27.20% # attempts to use FU when none available
system.cpu.iq.fu_full::SimdAes                      0      0.00%     27.20% # attempts to use FU when none available
system.cpu.iq.fu_full::SimdAesMix                   0      0.00%     27.20% # attempts to use FU when none available
system.cpu.iq.fu_full::SimdSha1Hash                 0      0.00%     27.20% # attempts to use FU when none available
system.cpu.iq.fu_full::SimdSha1Hash2                0      0.00%     27.20% # attempts to use FU when none available
system.cpu.iq.fu_full::SimdSha256Hash               0      0.00%     27.20% # attempts to use FU when none available
system.cpu.iq.fu_full::SimdSha256Hash2              0      0.00%     27.20% # attempts to use FU when none available
system.cpu.iq.fu_full::SimdShaSigma2                0      0.00%     27.20% # attempts to use FU when none available
system.cpu.iq.fu_full::SimdShaSigma3                0      0.00%     27.20% # attempts to use FU when none available
system.cpu.iq.fu_full::SimdPredAlu                  0      0.00%     27.20% # attempts to use FU when none available
system.cpu.iq.fu_full::MemRead                   1455     42.56%     69.76% # attempts to use FU when none available
system.cpu.iq.fu_full::MemWrite                  1034     30.24%    100.00% # attempts to use FU when none available
system.cpu.iq.fu_full::FloatMemRead                 0      0.00%    100.00% # attempts to use FU when none available
system.cpu.iq.fu_full::FloatMemWrite                0      0.00%    100.00% # attempts to use FU when none available
system.cpu.iq.fu_full::IprAccess                    0      0.00%    100.00% # attempts to use FU when none available
system.cpu.iq.fu_full::InstPrefetch                 0      0.00%    100.00% # attempts to use FU when none available
system.cpu.iq.int_alu_accesses               10875631                       # Number of integer alu accesses
system.cpu.iq.int_inst_queue_reads           36470560                       # Number of integer instruction queue reads
system.cpu.iq.int_inst_queue_wakeup_accesses     10708754                       # Number of integer instruction queue wakeup accesses
system.cpu.iq.int_inst_queue_writes          11904145                       # Number of integer instruction queue writes
system.cpu.iq.iqInstsAdded                   10967094                       # Number of instructions added to the IQ (excludes non-spec)
system.cpu.iq.iqInstsIssued                  10874907                       # Number of instructions issued
system.cpu.iq.iqNonSpecInstsAdded                 206                       # Number of non-speculative instructions added to the IQ
system.cpu.iq.iqSquashedInstsExamined          940113                       # Number of squashed instructions iterated over during squash; mainly for profiling
system.cpu.iq.iqSquashedInstsIssued               332                       # Number of squashed instructions issued
system.cpu.iq.iqSquashedNonSpecRemoved             32                       # Number of squashed non-spec instructions that were removed
system.cpu.iq.iqSquashedOperandsExamined       477242                       # Number of squashed operands that are examined and possibly removed from graph
system.cpu.iq.issued_per_cycle::samples      14722272                       # Number of insts issued each cycle
system.cpu.iq.issued_per_cycle::mean         0.738670                       # Number of insts issued each cycle
system.cpu.iq.issued_per_cycle::stdev        1.425657                       # Number of insts issued each cycle
system.cpu.iq.issued_per_cycle::underflows            0      0.00%      0.00% # Number of insts issued each cycle
system.cpu.iq.issued_per_cycle::0            11235400     76.32%     76.32% # Number of insts issued each cycle
system.cpu.iq.issued_per_cycle::1              437007      2.97%     79.28% # Number of insts issued each cycle
system.cpu.iq.issued_per_cycle::2              481063      3.27%     82.55% # Number of insts issued each cycle
system.cpu.iq.issued_per_cycle::3              827000      5.62%     88.17% # Number of insts issued each cycle
system.cpu.iq.issued_per_cycle::4             1726336     11.73%     99.89% # Number of insts issued each cycle
system.cpu.iq.issued_per_cycle::5                7551      0.05%     99.95% # Number of insts issued each cycle
system.cpu.iq.issued_per_cycle::6                4837      0.03%     99.98% # Number of insts issued each cycle
system.cpu.iq.issued_per_cycle::7                1971      0.01%     99.99% # Number of insts issued each cycle
system.cpu.iq.issued_per_cycle::8                1107      0.01%    100.00% # Number of insts issued each cycle
system.cpu.iq.issued_per_cycle::overflows            0      0.00%    100.00% # Number of insts issued each cycle
system.cpu.iq.issued_per_cycle::min_value            0                       # Number of insts issued each cycle
system.cpu.iq.issued_per_cycle::max_value            8                       # Number of insts issued each cycle
system.cpu.iq.issued_per_cycle::total        14722272                       # Number of insts issued each cycle
system.cpu.iq.rate                           0.734390                       # Inst issue rate
system.cpu.iq.vec_alu_accesses                   2669                       # Number of vector alu accesses
system.cpu.iq.vec_inst_queue_reads               5273                       # Number of vector instruction queue reads
system.cpu.iq.vec_inst_queue_wakeup_accesses         2283                       # Number of vector instruction queue wakeup accesses
system.cpu.iq.vec_inst_queue_writes              3305                       # Number of vector instruction queue writes
system.cpu.itb.accesses                             0                       # DTB accesses
system.cpu.itb.align_faults                         0                       # Number of TLB faults due to alignment restrictions
system.cpu.itb.domain_faults                        0                       # Number of TLB faults due to domain restrictions
system.cpu.itb.flush_entries                        0                       # Number of entries that have been flushed from TLB
system.cpu.itb.flush_tlb                            0                       # Number of times complete TLB was flushed
system.cpu.itb.flush_tlb_asid                       0                       # Number of times TLB was flushed by ASID
system.cpu.itb.flush_tlb_mva                        0                       # Number of times TLB was flushed by MVA
system.cpu.itb.flush_tlb_mva_asid                   0                       # Number of times TLB was flushed by MVA & ASID
system.cpu.itb.hits                                 0                       # DTB hits
system.cpu.itb.inst_accesses                        0                       # ITB inst accesses
system.cpu.itb.inst_hits                            0                       # ITB inst hits
system.cpu.itb.inst_misses                          0                       # ITB inst misses
system.cpu.itb.misses                               0                       # DTB misses
system.cpu.itb.perms_faults                         0                       # Number of TLB faults due to permissions restrictions
system.cpu.itb.prefetch_faults                      0                       # Number of TLB faults due to prefetch
system.cpu.itb.read_accesses                        0                       # DTB read accesses
system.cpu.itb.read_hits                            0                       # DTB read hits
system.cpu.itb.read_misses                          0                       # DTB read misses
system.cpu.itb.stage2_mmu.stage2_tlb.accesses            0                       # DTB accesses
system.cpu.itb.stage2_mmu.stage2_tlb.align_faults            0                       # Number of TLB faults due to alignment restrictions
system.cpu.itb.stage2_mmu.stage2_tlb.domain_faults            0                       # Number of TLB faults due to domain restrictions
system.cpu.itb.stage2_mmu.stage2_tlb.flush_entries            0                       # Number of entries that have been flushed from TLB
system.cpu.itb.stage2_mmu.stage2_tlb.flush_tlb            0                       # Number of times complete TLB was flushed
system.cpu.itb.stage2_mmu.stage2_tlb.flush_tlb_asid            0                       # Number of times TLB was flushed by ASID
system.cpu.itb.stage2_mmu.stage2_tlb.flush_tlb_mva            0                       # Number of times TLB was flushed by MVA
system.cpu.itb.stage2_mmu.stage2_tlb.flush_tlb_mva_asid            0                       # Number of times TLB was flushed by MVA & ASID
system.cpu.itb.stage2_mmu.stage2_tlb.hits            0                       # DTB hits
system.cpu.itb.stage2_mmu.stage2_tlb.inst_accesses            0                       # ITB inst accesses
system.cpu.itb.stage2_mmu.stage2_tlb.inst_hits            0                       # ITB inst hits
system.cpu.itb.stage2_mmu.stage2_tlb.inst_misses            0                       # ITB inst misses
system.cpu.itb.stage2_mmu.stage2_tlb.misses            0                       # DTB misses
system.cpu.itb.stage2_mmu.stage2_tlb.perms_faults            0                       # Number of TLB faults due to permissions restrictions
system.cpu.itb.stage2_mmu.stage2_tlb.prefetch_faults            0                       # Number of TLB faults due to prefetch
system.cpu.itb.stage2_mmu.stage2_tlb.read_accesses            0                       # DTB read accesses
system.cpu.itb.stage2_mmu.stage2_tlb.read_hits            0                       # DTB read hits
system.cpu.itb.stage2_mmu.stage2_tlb.read_misses            0                       # DTB read misses
system.cpu.itb.stage2_mmu.stage2_tlb.walker.walkRequestOrigin_Requested::Data            0                       # Table walker requests started/completed, data/inst
system.cpu.itb.stage2_mmu.stage2_tlb.walker.walkRequestOrigin_Requested::Inst            0                       # Table walker requests started/completed, data/inst
system.cpu.itb.stage2_mmu.stage2_tlb.walker.walkRequestOrigin_Requested::total            0                       # Table walker requests started/completed, data/inst
system.cpu.itb.stage2_mmu.stage2_tlb.walker.walkRequestOrigin_Completed::Data            0                       # Table walker requests started/completed, data/inst
system.cpu.itb.stage2_mmu.stage2_tlb.walker.walkRequestOrigin_Completed::Inst            0                       # Table walker requests started/completed, data/inst
system.cpu.itb.stage2_mmu.stage2_tlb.walker.walkRequestOrigin_Completed::total            0                       # Table walker requests started/completed, data/inst
system.cpu.itb.stage2_mmu.stage2_tlb.walker.walkRequestOrigin::total            0                       # Table walker requests started/completed, data/inst
system.cpu.itb.stage2_mmu.stage2_tlb.walker.walks            0                       # Table walker walks requested
system.cpu.itb.stage2_mmu.stage2_tlb.write_accesses            0                       # DTB write accesses
system.cpu.itb.stage2_mmu.stage2_tlb.write_hits            0                       # DTB write hits
system.cpu.itb.stage2_mmu.stage2_tlb.write_misses            0                       # DTB write misses
system.cpu.itb.walker.walkRequestOrigin_Requested::Data            0                       # Table walker requests started/completed, data/inst
system.cpu.itb.walker.walkRequestOrigin_Requested::Inst            0                       # Table walker requests started/completed, data/inst
system.cpu.itb.walker.walkRequestOrigin_Requested::total            0                       # Table walker requests started/completed, data/inst
system.cpu.itb.walker.walkRequestOrigin_Completed::Data            0                       # Table walker requests started/completed, data/inst
system.cpu.itb.walker.walkRequestOrigin_Completed::Inst            0                       # Table walker requests started/completed, data/inst
system.cpu.itb.walker.walkRequestOrigin_Completed::total            0                       # Table walker requests started/completed, data/inst
system.cpu.itb.walker.walkRequestOrigin::total            0                       # Table walker requests started/completed, data/inst
system.cpu.itb.walker.walks                         0                       # Table walker walks requested
system.cpu.itb.write_accesses                       0                       # DTB write accesses
system.cpu.itb.write_hits                           0                       # DTB write hits
system.cpu.itb.write_misses                         0                       # DTB write misses
system.cpu.memDep0.conflictingLoads              2048                       # Number of conflicting loads.
system.cpu.memDep0.conflictingStores             1220                       # Number of conflicting stores.
system.cpu.memDep0.insertedLoads                41130                       # Number of loads inserted to the mem dependence unit.
system.cpu.memDep0.insertedStores             2684777                       # Number of stores inserted to the mem dependence unit.
system.cpu.misc_regfile_reads                 8007851                       # number of misc regfile reads
system.cpu.misc_regfile_writes                    561                       # number of misc regfile writes
system.cpu.numCycles                         14808080                       # number of cpu cycles simulated
system.cpu.numWorkItemsCompleted                    0                       # number of work items this cpu completed
system.cpu.numWorkItemsStarted                      0                       # number of work items this cpu started
system.cpu.rename.BlockCycles                   84966                       # Number of cycles rename is blocking
system.cpu.rename.CommittedMaps              12530631                       # Number of HB maps that are committed
system.cpu.rename.IQFullEvents                     50                       # Number of times rename has blocked due to IQ full
system.cpu.rename.IdleCycles                   720008                       # Number of cycles rename is idle
system.cpu.rename.LQFullEvents                   1261                       # Number of times rename has blocked due to LQ full
system.cpu.rename.ROBFullEvents                     8                       # Number of times rename has blocked due to ROB full
system.cpu.rename.RenameLookups              22114701                       # Number of register rename lookups that rename has made
system.cpu.rename.RenamedInsts               11135584                       # Number of instructions processed by rename
system.cpu.rename.RenamedOperands            13884420                       # Number of destination operands rename has renamed
system.cpu.rename.RunCycles                   1332739                       # Number of cycles rename is running
system.cpu.rename.SQFullEvents               12542583                       # Number of times rename has blocked due to SQ full
system.cpu.rename.SquashCycles                  27044                       # Number of cycles rename is squashing
system.cpu.rename.UnblockCycles              12538272                       # Number of cycles rename is unblocking
system.cpu.rename.UndoneMaps                  1353754                       # Number of HB maps that are undone due to squashing
system.cpu.rename.int_rename_lookups         13852476                       # Number of integer rename lookups
system.cpu.rename.serializeStallCycles          19243                       # count of cycles rename stalled for serializing inst
system.cpu.rename.serializingInsts                835                       # count of serializing insts renamed
system.cpu.rename.skidInsts                   4397167                       # count of insts added to the skid buffer
system.cpu.rename.tempSerializingInsts            204                       # count of temporary serializing insts renamed
system.cpu.rename.vec_rename_lookups             2699                       # Number of vector rename lookups
system.cpu.rob.rob_reads                     25388525                       # The number of ROB reads
system.cpu.rob.rob_writes                    21806314                       # The number of ROB writes
system.cpu.timesIdled                            2990                       # Number of times that the entire CPU went into an idle state and unscheduled itself
system.cpu.vec_regfile_reads                     2230                       # number of vector regfile reads
system.cpu.vec_regfile_writes                     180                       # number of vector regfile writes
system.cpu.workload.numSyscalls                    35                       # Number of system calls
system.membus.snoop_filter.hit_multi_requests            0                       # Number of requests hitting in the snoop filter with multiple (>1) holders of the requested data.
system.membus.snoop_filter.hit_multi_snoops            0                       # Number of snoops hitting in the snoop filter with multiple (>1) holders of the requested data.
system.membus.snoop_filter.hit_single_requests       173570                       # Number of requests hitting in the snoop filter with a single holder of the requested data.
system.membus.snoop_filter.hit_single_snoops            0                       # Number of snoops hitting in the snoop filter with a single holder of the requested data.
system.membus.snoop_filter.tot_requests        478341                       # Total number of requests made to the snoop filter.
system.membus.snoop_filter.tot_snoops               0                       # Total number of snoops made to the snoop filter.
system.tol2bus.snoop_filter.hit_multi_requests          110                       # Number of requests hitting in the snoop filter with multiple (>1) holders of the requested data.
system.tol2bus.snoop_filter.hit_multi_snoops            0                       # Number of snoops hitting in the snoop filter with multiple (>1) holders of the requested data.
system.tol2bus.snoop_filter.hit_single_requests       319633                       # Number of requests hitting in the snoop filter with a single holder of the requested data.
system.tol2bus.snoop_filter.hit_single_snoops          128                       # Number of snoops hitting in the snoop filter with a single holder of the requested data.
system.tol2bus.snoop_filter.tot_requests       640421                       # Total number of requests made to the snoop filter.
system.tol2bus.snoop_filter.tot_snoops            128                       # Total number of snoops made to the snoop filter.
system.membus.trans_dist::ReadResp                982                       # Transaction distribution
system.membus.trans_dist::WritebackDirty       172745                       # Transaction distribution
system.membus.trans_dist::CleanEvict              825                       # Transaction distribution
system.membus.trans_dist::ReadExReq            303702                       # Transaction distribution
system.membus.trans_dist::ReadExResp           303702                       # Transaction distribution
system.membus.trans_dist::ReadSharedReq           982                       # Transaction distribution
system.membus.trans_dist::InvalidateReq            87                       # Transaction distribution
system.membus.pkt_count_system.l2.mem_side::system.mem_ctrls.port       783025                       # Packet count per connected master and slave (bytes)
system.membus.pkt_count::total                 783025                       # Packet count per connected master and slave (bytes)
system.membus.pkt_size_system.l2.mem_side::system.mem_ctrls.port     30555456                       # Cumulative packet size per connected master and slave (bytes)
system.membus.pkt_size::total                30555456                       # Cumulative packet size per connected master and slave (bytes)
system.membus.snoops                                0                       # Total snoops (count)
system.membus.snoopTraffic                          0                       # Total snoop traffic (bytes)
system.membus.snoop_fanout::samples            304771                       # Request fanout histogram
system.membus.snoop_fanout::mean                    0                       # Request fanout histogram
system.membus.snoop_fanout::stdev                   0                       # Request fanout histogram
system.membus.snoop_fanout::underflows              0      0.00%      0.00% # Request fanout histogram
system.membus.snoop_fanout::0                  304771    100.00%    100.00% # Request fanout histogram
system.membus.snoop_fanout::1                       0      0.00%    100.00% # Request fanout histogram
system.membus.snoop_fanout::overflows               0      0.00%    100.00% # Request fanout histogram
system.membus.snoop_fanout::min_value               0                       # Request fanout histogram
system.membus.snoop_fanout::max_value               0                       # Request fanout histogram
system.membus.snoop_fanout::total              304771                       # Request fanout histogram
system.membus.reqLayer0.occupancy          1273070500                       # Layer occupancy (ticks)
system.membus.reqLayer0.utilization              17.2                       # Layer utilization (%)
system.membus.respLayer1.occupancy         1568197000                       # Layer occupancy (ticks)
system.membus.respLayer1.utilization             21.2                       # Layer utilization (%)
system.membus.power_state.pwrStateResidencyTicks::UNDEFINED   7404039500                       # Cumulative time (in ticks) in various power states
system.tol2bus.trans_dist::ReadResp             16997                       # Transaction distribution
system.tol2bus.trans_dist::WritebackDirty       475586                       # Transaction distribution
system.tol2bus.trans_dist::WritebackClean        16616                       # Transaction distribution
system.tol2bus.trans_dist::CleanEvict            1130                       # Transaction distribution
system.tol2bus.trans_dist::ReadExReq           303704                       # Transaction distribution
system.tol2bus.trans_dist::ReadExResp          303702                       # Transaction distribution
system.tol2bus.trans_dist::ReadCleanReq         16744                       # Transaction distribution
system.tol2bus.trans_dist::ReadSharedReq          253                       # Transaction distribution
system.tol2bus.trans_dist::InvalidateReq           87                       # Transaction distribution
system.tol2bus.trans_dist::InvalidateResp           87                       # Transaction distribution
system.tol2bus.pkt_count_system.cpu.icache.mem_side::system.l2.cpu_side        50104                       # Packet count per connected master and slave (bytes)
system.tol2bus.pkt_count_system.cpu.dcache.mem_side::system.l2.cpu_side       911103                       # Packet count per connected master and slave (bytes)
system.tol2bus.pkt_count::total                961207                       # Packet count per connected master and slave (bytes)
system.tol2bus.pkt_size_system.cpu.icache.mem_side::system.l2.cpu_side      2135040                       # Cumulative packet size per connected master and slave (bytes)
system.tol2bus.pkt_size_system.cpu.dcache.mem_side::system.l2.cpu_side     38834880                       # Cumulative packet size per connected master and slave (bytes)
system.tol2bus.pkt_size::total               40969920                       # Cumulative packet size per connected master and slave (bytes)
system.tol2bus.snoops                          173699                       # Total snoops (count)
system.tol2bus.snoopTraffic                  11055744                       # Total snoop traffic (bytes)
system.tol2bus.snoop_fanout::samples           494487                       # Request fanout histogram
system.tol2bus.snoop_fanout::mean            0.000481                       # Request fanout histogram
system.tol2bus.snoop_fanout::stdev           0.021933                       # Request fanout histogram
system.tol2bus.snoop_fanout::underflows             0      0.00%      0.00% # Request fanout histogram
system.tol2bus.snoop_fanout::0                 494249     99.95%     99.95% # Request fanout histogram
system.tol2bus.snoop_fanout::1                    238      0.05%    100.00% # Request fanout histogram
system.tol2bus.snoop_fanout::2                      0      0.00%    100.00% # Request fanout histogram
system.tol2bus.snoop_fanout::overflows              0      0.00%    100.00% # Request fanout histogram
system.tol2bus.snoop_fanout::min_value              0                       # Request fanout histogram
system.tol2bus.snoop_fanout::max_value              1                       # Request fanout histogram
system.tol2bus.snoop_fanout::total             494487                       # Request fanout histogram
system.tol2bus.reqLayer0.occupancy          640385336                       # Layer occupancy (ticks)
system.tol2bus.reqLayer0.utilization              8.6                       # Layer utilization (%)
system.tol2bus.respLayer1.occupancy         455995461                       # Layer occupancy (ticks)
system.tol2bus.respLayer1.utilization             6.2                       # Layer utilization (%)
system.tol2bus.respLayer0.occupancy          25116000                       # Layer occupancy (ticks)
system.tol2bus.respLayer0.utilization             0.3                       # Layer utilization (%)
system.tol2bus.power_state.pwrStateResidencyTicks::UNDEFINED   7404039500                       # Cumulative time (in ticks) in various power states
system.voltage_domain.voltage                       1                       # Voltage in Volts
system.clk_domain.clock                          1000                       # Clock period in ticks
system.l2.demand_hits::.cpu.inst                 2991                       # number of demand (read+write) hits
system.l2.demand_hits::.cpu.data                  106                       # number of demand (read+write) hits
system.l2.demand_hits::.cpu.icache.prefetcher        12919                       # number of demand (read+write) hits
system.l2.demand_hits::total                    16016                       # number of demand (read+write) hits
system.l2.overall_hits::.cpu.inst                2991                       # number of overall hits
system.l2.overall_hits::.cpu.data                 106                       # number of overall hits
system.l2.overall_hits::.cpu.icache.prefetcher        12919                       # number of overall hits
system.l2.overall_hits::total                   16016                       # number of overall hits
system.l2.demand_misses::.cpu.inst                834                       # number of demand (read+write) misses
system.l2.demand_misses::.cpu.data             303851                       # number of demand (read+write) misses
system.l2.demand_misses::total                 304685                       # number of demand (read+write) misses
system.l2.overall_misses::.cpu.inst               834                       # number of overall misses
system.l2.overall_misses::.cpu.data            303851                       # number of overall misses
system.l2.overall_misses::total                304685                       # number of overall misses
system.l2.demand_miss_latency::.cpu.inst     65205500                       # number of demand (read+write) miss cycles
system.l2.demand_miss_latency::.cpu.data  31233316500                       # number of demand (read+write) miss cycles
system.l2.demand_miss_latency::total      31298522000                       # number of demand (read+write) miss cycles
system.l2.overall_miss_latency::.cpu.inst     65205500                       # number of overall miss cycles
system.l2.overall_miss_latency::.cpu.data  31233316500                       # number of overall miss cycles
system.l2.overall_miss_latency::total     31298522000                       # number of overall miss cycles
system.l2.demand_accesses::.cpu.inst             3825                       # number of demand (read+write) accesses
system.l2.demand_accesses::.cpu.data           303957                       # number of demand (read+write) accesses
system.l2.demand_accesses::.cpu.icache.prefetcher        12919                       # number of demand (read+write) accesses
system.l2.demand_accesses::total               320701                       # number of demand (read+write) accesses
system.l2.overall_accesses::.cpu.inst            3825                       # number of overall (read+write) accesses
system.l2.overall_accesses::.cpu.data          303957                       # number of overall (read+write) accesses
system.l2.overall_accesses::.cpu.icache.prefetcher        12919                       # number of overall (read+write) accesses
system.l2.overall_accesses::total              320701                       # number of overall (read+write) accesses
system.l2.demand_miss_rate::.cpu.inst        0.218039                       # miss rate for demand accesses
system.l2.demand_miss_rate::.cpu.data        0.999651                       # miss rate for demand accesses
system.l2.demand_miss_rate::total            0.950059                       # miss rate for demand accesses
system.l2.overall_miss_rate::.cpu.inst       0.218039                       # miss rate for overall accesses
system.l2.overall_miss_rate::.cpu.data       0.999651                       # miss rate for overall accesses
system.l2.overall_miss_rate::total           0.950059                       # miss rate for overall accesses
system.l2.demand_avg_miss_latency::.cpu.inst 78184.052758                       # average overall miss latency
system.l2.demand_avg_miss_latency::.cpu.data 102791.554084                       # average overall miss latency
system.l2.demand_avg_miss_latency::total 102724.197122                       # average overall miss latency
system.l2.overall_avg_miss_latency::.cpu.inst 78184.052758                       # average overall miss latency
system.l2.overall_avg_miss_latency::.cpu.data 102791.554084                       # average overall miss latency
system.l2.overall_avg_miss_latency::total 102724.197122                       # average overall miss latency
system.l2.blocked_cycles::no_mshrs                  0                       # number of cycles access was blocked
system.l2.blocked_cycles::no_targets                0                       # number of cycles access was blocked
system.l2.blocked::no_mshrs                         0                       # number of cycles access was blocked
system.l2.blocked::no_targets                       0                       # number of cycles access was blocked
system.l2.avg_blocked_cycles::no_mshrs            nan                       # average number of cycles each access was blocked
system.l2.avg_blocked_cycles::no_targets          nan                       # average number of cycles each access was blocked
system.l2.writebacks::.writebacks              172746                       # number of writebacks
system.l2.writebacks::total                    172746                       # number of writebacks
system.l2.demand_mshr_misses::.cpu.inst           834                       # number of demand (read+write) MSHR misses
system.l2.demand_mshr_misses::.cpu.data        303851                       # number of demand (read+write) MSHR misses
system.l2.demand_mshr_misses::total            304685                       # number of demand (read+write) MSHR misses
system.l2.overall_mshr_misses::.cpu.inst          834                       # number of overall MSHR misses
system.l2.overall_mshr_misses::.cpu.data       303851                       # number of overall MSHR misses
system.l2.overall_mshr_misses::total           304685                       # number of overall MSHR misses
system.l2.demand_mshr_miss_latency::.cpu.inst     56865500                       # number of demand (read+write) MSHR miss cycles
system.l2.demand_mshr_miss_latency::.cpu.data  28194816500                       # number of demand (read+write) MSHR miss cycles
system.l2.demand_mshr_miss_latency::total  28251682000                       # number of demand (read+write) MSHR miss cycles
system.l2.overall_mshr_miss_latency::.cpu.inst     56865500                       # number of overall MSHR miss cycles
system.l2.overall_mshr_miss_latency::.cpu.data  28194816500                       # number of overall MSHR miss cycles
system.l2.overall_mshr_miss_latency::total  28251682000                       # number of overall MSHR miss cycles
system.l2.demand_mshr_miss_rate::.cpu.inst     0.218039                       # mshr miss rate for demand accesses
system.l2.demand_mshr_miss_rate::.cpu.data     0.999651                       # mshr miss rate for demand accesses
system.l2.demand_mshr_miss_rate::total       0.950059                       # mshr miss rate for demand accesses
system.l2.overall_mshr_miss_rate::.cpu.inst     0.218039                       # mshr miss rate for overall accesses
system.l2.overall_mshr_miss_rate::.cpu.data     0.999651                       # mshr miss rate for overall accesses
system.l2.overall_mshr_miss_rate::total      0.950059                       # mshr miss rate for overall accesses
system.l2.demand_avg_mshr_miss_latency::.cpu.inst 68184.052758                       # average overall mshr miss latency
system.l2.demand_avg_mshr_miss_latency::.cpu.data 92791.586995                       # average overall mshr miss latency
system.l2.demand_avg_mshr_miss_latency::total 92724.229942                       # average overall mshr miss latency
system.l2.overall_avg_mshr_miss_latency::.cpu.inst 68184.052758                       # average overall mshr miss latency
system.l2.overall_avg_mshr_miss_latency::.cpu.data 92791.586995                       # average overall mshr miss latency
system.l2.overall_avg_mshr_miss_latency::total 92724.229942                       # average overall mshr miss latency
system.l2.replacements                         173699                       # number of replacements
system.l2.WritebackDirty_hits::.writebacks       302840                       # number of WritebackDirty hits
system.l2.WritebackDirty_hits::total           302840                       # number of WritebackDirty hits
system.l2.WritebackDirty_accesses::.writebacks       302840                       # number of WritebackDirty accesses(hits+misses)
system.l2.WritebackDirty_accesses::total       302840                       # number of WritebackDirty accesses(hits+misses)
system.l2.WritebackClean_hits::.writebacks        16507                       # number of WritebackClean hits
system.l2.WritebackClean_hits::total            16507                       # number of WritebackClean hits
system.l2.WritebackClean_accesses::.writebacks        16507                       # number of WritebackClean accesses(hits+misses)
system.l2.WritebackClean_accesses::total        16507                       # number of WritebackClean accesses(hits+misses)
system.l2.ReadExReq_hits::.cpu.data                 1                       # number of ReadExReq hits
system.l2.ReadExReq_hits::total                     1                       # number of ReadExReq hits
system.l2.ReadExReq_misses::.cpu.data          303703                       # number of ReadExReq misses
system.l2.ReadExReq_misses::total              303703                       # number of ReadExReq misses
system.l2.ReadExReq_miss_latency::.cpu.data  31220721000                       # number of ReadExReq miss cycles
system.l2.ReadExReq_miss_latency::total   31220721000                       # number of ReadExReq miss cycles
system.l2.ReadExReq_accesses::.cpu.data        303704                       # number of ReadExReq accesses(hits+misses)
system.l2.ReadExReq_accesses::total            303704                       # number of ReadExReq accesses(hits+misses)
system.l2.ReadExReq_miss_rate::.cpu.data     0.999997                       # miss rate for ReadExReq accesses
system.l2.ReadExReq_miss_rate::total         0.999997                       # miss rate for ReadExReq accesses
system.l2.ReadExReq_avg_miss_latency::.cpu.data 102800.173196                       # average ReadExReq miss latency
system.l2.ReadExReq_avg_miss_latency::total 102800.173196                       # average ReadExReq miss latency
system.l2.ReadExReq_mshr_misses::.cpu.data       303703                       # number of ReadExReq MSHR misses
system.l2.ReadExReq_mshr_misses::total         303703                       # number of ReadExReq MSHR misses
system.l2.ReadExReq_mshr_miss_latency::.cpu.data  28183701000                       # number of ReadExReq MSHR miss cycles
system.l2.ReadExReq_mshr_miss_latency::total  28183701000                       # number of ReadExReq MSHR miss cycles
system.l2.ReadExReq_mshr_miss_rate::.cpu.data     0.999997                       # mshr miss rate for ReadExReq accesses
system.l2.ReadExReq_mshr_miss_rate::total     0.999997                       # mshr miss rate for ReadExReq accesses
system.l2.ReadExReq_avg_mshr_miss_latency::.cpu.data 92800.206122                       # average ReadExReq mshr miss latency
system.l2.ReadExReq_avg_mshr_miss_latency::total 92800.206122                       # average ReadExReq mshr miss latency
system.l2.ReadCleanReq_hits::.cpu.inst           2991                       # number of ReadCleanReq hits
system.l2.ReadCleanReq_hits::.cpu.icache.prefetcher        12919                       # number of ReadCleanReq hits
system.l2.ReadCleanReq_hits::total              15910                       # number of ReadCleanReq hits
system.l2.ReadCleanReq_misses::.cpu.inst          834                       # number of ReadCleanReq misses
system.l2.ReadCleanReq_misses::total              834                       # number of ReadCleanReq misses
system.l2.ReadCleanReq_miss_latency::.cpu.inst     65205500                       # number of ReadCleanReq miss cycles
[...]
system.cpu.dcache.overall_miss_latency::total 215817689500                       # number of overall miss cycles
system.cpu.dcache.demand_accesses::.cpu.data      2491755                       # number of demand (read+write) accesses
system.cpu.dcache.demand_accesses::total      2491755                       # number of demand (read+write) accesses
system.cpu.dcache.overall_accesses::.cpu.data      2491893                       # number of overall (read+write) accesses
system.cpu.dcache.overall_accesses::total      2491893                       # number of overall (read+write) accesses
system.cpu.dcache.demand_miss_rate::.cpu.data     0.975059                       # miss rate for demand accesses
system.cpu.dcache.demand_miss_rate::total     0.975059                       # miss rate for demand accesses
system.cpu.dcache.overall_miss_rate::.cpu.data     0.975008                       # miss rate for overall accesses
system.cpu.dcache.overall_miss_rate::total     0.975008                       # miss rate for overall accesses
system.cpu.dcache.demand_avg_miss_latency::.cpu.data 88828.156917                       # average overall miss latency
system.cpu.dcache.demand_avg_miss_latency::total 88828.156917                       # average overall miss latency
system.cpu.dcache.overall_avg_miss_latency::.cpu.data 88827.900993                       # average overall miss latency
system.cpu.dcache.overall_avg_miss_latency::total 88827.900993                       # average overall miss latency
system.cpu.dcache.blocked_cycles::no_mshrs            0                       # number of cycles access was blocked
system.cpu.dcache.blocked_cycles::no_targets            0                       # number of cycles access was blocked
system.cpu.dcache.blocked::no_mshrs                 0                       # number of cycles access was blocked
system.cpu.dcache.blocked::no_targets               0                       # number of cycles access was blocked
system.cpu.dcache.avg_blocked_cycles::no_mshrs          nan                       # average number of cycles each access was blocked
system.cpu.dcache.avg_blocked_cycles::no_targets          nan                       # average number of cycles each access was blocked
system.cpu.dcache.writebacks::.writebacks       302841                       # number of writebacks
system.cpu.dcache.writebacks::total            302841                       # number of writebacks
system.cpu.dcache.demand_mshr_hits::.cpu.data      2125572                       # number of demand (read+write) MSHR hits
system.cpu.dcache.demand_mshr_hits::total      2125572                       # number of demand (read+write) MSHR hits
system.cpu.dcache.overall_mshr_hits::.cpu.data      2125572                       # number of overall MSHR hits
system.cpu.dcache.overall_mshr_hits::total      2125572                       # number of overall MSHR hits
system.cpu.dcache.demand_mshr_misses::.cpu.data       304037                       # number of demand (read+write) MSHR misses
system.cpu.dcache.demand_mshr_misses::total       304037                       # number of demand (read+write) MSHR misses
system.cpu.dcache.overall_mshr_misses::.cpu.data       304044                       # number of overall MSHR misses
system.cpu.dcache.overall_mshr_misses::total       304044                       # number of overall MSHR misses
system.cpu.dcache.demand_mshr_miss_latency::.cpu.data  31694773500                       # number of demand (read+write) MSHR miss cycles
system.cpu.dcache.demand_mshr_miss_latency::total  31694773500                       # number of demand (read+write) MSHR miss cycles
system.cpu.dcache.overall_mshr_miss_latency::.cpu.data  31695303500                       # number of overall MSHR miss cycles
system.cpu.dcache.overall_mshr_miss_latency::total  31695303500                       # number of overall MSHR miss cycles
system.cpu.dcache.demand_mshr_miss_rate::.cpu.data     0.122017                       # mshr miss rate for demand accesses
system.cpu.dcache.demand_mshr_miss_rate::total     0.122017                       # mshr miss rate for demand accesses
system.cpu.dcache.overall_mshr_miss_rate::.cpu.data     0.122013                       # mshr miss rate for overall accesses
system.cpu.dcache.overall_mshr_miss_rate::total     0.122013                       # mshr miss rate for overall accesses
system.cpu.dcache.demand_avg_mshr_miss_latency::.cpu.data 104246.435467                       # average overall mshr miss latency
system.cpu.dcache.demand_avg_mshr_miss_latency::total 104246.435467                       # average overall mshr miss latency
system.cpu.dcache.overall_avg_mshr_miss_latency::.cpu.data 104245.778572                       # average overall mshr miss latency
system.cpu.dcache.overall_avg_mshr_miss_latency::total 104245.778572                       # average overall mshr miss latency
system.cpu.dcache.replacements                 303018                       # number of replacements
system.cpu.dcache.ReadReq_hits::.cpu.data        35834                       # number of ReadReq hits
system.cpu.dcache.ReadReq_hits::total           35834                       # number of ReadReq hits
system.cpu.dcache.ReadReq_misses::.cpu.data          567                       # number of ReadReq misses
system.cpu.dcache.ReadReq_misses::total           567                       # number of ReadReq misses
system.cpu.dcache.ReadReq_miss_latency::.cpu.data     30629500                       # number of ReadReq miss cycles
system.cpu.dcache.ReadReq_miss_latency::total     30629500                       # number of ReadReq miss cycles
system.cpu.dcache.ReadReq_accesses::.cpu.data        36401                       # number of ReadReq accesses(hits+misses)
system.cpu.dcache.ReadReq_accesses::total        36401                       # number of ReadReq accesses(hits+misses)
system.cpu.dcache.ReadReq_miss_rate::.cpu.data     0.015576                       # miss rate for ReadReq accesses
system.cpu.dcache.ReadReq_miss_rate::total     0.015576                       # miss rate for ReadReq accesses
system.cpu.dcache.ReadReq_avg_miss_latency::.cpu.data 54020.282187                       # average ReadReq miss latency
system.cpu.dcache.ReadReq_avg_miss_latency::total 54020.282187                       # average ReadReq miss latency
system.cpu.dcache.ReadReq_mshr_hits::.cpu.data          322                       # number of ReadReq MSHR hits
system.cpu.dcache.ReadReq_mshr_hits::total          322                       # number of ReadReq MSHR hits
system.cpu.dcache.ReadReq_mshr_misses::.cpu.data          245                       # number of ReadReq MSHR misses
system.cpu.dcache.ReadReq_mshr_misses::total          245                       # number of ReadReq MSHR misses
system.cpu.dcache.ReadReq_mshr_miss_latency::.cpu.data     13294000                       # number of ReadReq MSHR miss cycles
system.cpu.dcache.ReadReq_mshr_miss_latency::total     13294000                       # number of ReadReq MSHR miss cycles
system.cpu.dcache.ReadReq_mshr_miss_rate::.cpu.data     0.006731                       # mshr miss rate for ReadReq accesses
system.cpu.dcache.ReadReq_mshr_miss_rate::total     0.006731                       # mshr miss rate for ReadReq accesses
system.cpu.dcache.ReadReq_avg_mshr_miss_latency::.cpu.data 54261.224490                       # average ReadReq mshr miss latency
system.cpu.dcache.ReadReq_avg_mshr_miss_latency::total 54261.224490                       # average ReadReq mshr miss latency
system.cpu.dcache.WriteReq_hits::.cpu.data        26268                       # number of WriteReq hits
system.cpu.dcache.WriteReq_hits::total          26268                       # number of WriteReq hits
system.cpu.dcache.WriteReq_misses::.cpu.data      2428984                       # number of WriteReq misses
system.cpu.dcache.WriteReq_misses::total      2428984                       # number of WriteReq misses
system.cpu.dcache.WriteReq_miss_latency::.cpu.data 215785232500                       # number of WriteReq miss cycles
system.cpu.dcache.WriteReq_miss_latency::total 215785232500                       # number of WriteReq miss cycles
system.cpu.dcache.WriteReq_accesses::.cpu.data      2455252                       # number of WriteReq accesses(hits+misses)
system.cpu.dcache.WriteReq_accesses::total      2455252                       # number of WriteReq accesses(hits+misses)
system.cpu.dcache.WriteReq_miss_rate::.cpu.data     0.989301                       # miss rate for WriteReq accesses
system.cpu.dcache.WriteReq_miss_rate::total     0.989301                       # miss rate for WriteReq accesses
system.cpu.dcache.WriteReq_avg_miss_latency::.cpu.data 88837.650845                       # average WriteReq miss latency
system.cpu.dcache.WriteReq_avg_miss_latency::total 88837.650845                       # average WriteReq miss latency
system.cpu.dcache.WriteReq_mshr_hits::.cpu.data      2125250                       # number of WriteReq MSHR hits
system.cpu.dcache.WriteReq_mshr_hits::total      2125250                       # number of WriteReq MSHR hits
system.cpu.dcache.WriteReq_mshr_misses::.cpu.data       303734                       # number of WriteReq MSHR misses
system.cpu.dcache.WriteReq_mshr_misses::total       303734                       # number of WriteReq MSHR misses
system.cpu.dcache.WriteReq_mshr_miss_latency::.cpu.data  31679710000                       # number of WriteReq MSHR miss cycles
system.cpu.dcache.WriteReq_mshr_miss_latency::total  31679710000                       # number of WriteReq MSHR miss cycles
system.cpu.dcache.WriteReq_mshr_miss_rate::.cpu.data     0.123708                       # mshr miss rate for WriteReq accesses
system.cpu.dcache.WriteReq_mshr_miss_rate::total     0.123708                       # mshr miss rate for WriteReq accesses
system.cpu.dcache.WriteReq_avg_mshr_miss_latency::.cpu.data 104300.835600                       # average WriteReq mshr miss latency
system.cpu.dcache.WriteReq_avg_mshr_miss_latency::total 104300.835600                       # average WriteReq mshr miss latency
system.cpu.dcache.SoftPFReq_hits::.cpu.data          131                       # number of SoftPFReq hits
system.cpu.dcache.SoftPFReq_hits::total           131                       # number of SoftPFReq hits
system.cpu.dcache.SoftPFReq_misses::.cpu.data            7                       # number of SoftPFReq misses
system.cpu.dcache.SoftPFReq_misses::total            7                       # number of SoftPFReq misses
system.cpu.dcache.SoftPFReq_accesses::.cpu.data          138                       # number of SoftPFReq accesses(hits+misses)
system.cpu.dcache.SoftPFReq_accesses::total          138                       # number of SoftPFReq accesses(hits+misses)
system.cpu.dcache.SoftPFReq_miss_rate::.cpu.data     0.050725                       # miss rate for SoftPFReq accesses
system.cpu.dcache.SoftPFReq_miss_rate::total     0.050725                       # miss rate for SoftPFReq accesses
system.cpu.dcache.SoftPFReq_mshr_misses::.cpu.data            7                       # number of SoftPFReq MSHR misses
system.cpu.dcache.SoftPFReq_mshr_misses::total            7                       # number of SoftPFReq MSHR misses
system.cpu.dcache.SoftPFReq_mshr_miss_latency::.cpu.data       530000                       # number of SoftPFReq MSHR miss cycles
system.cpu.dcache.SoftPFReq_mshr_miss_latency::total       530000                       # number of SoftPFReq MSHR miss cycles
system.cpu.dcache.SoftPFReq_mshr_miss_rate::.cpu.data     0.050725                       # mshr miss rate for SoftPFReq accesses
system.cpu.dcache.SoftPFReq_mshr_miss_rate::total     0.050725                       # mshr miss rate for SoftPFReq accesses
system.cpu.dcache.SoftPFReq_avg_mshr_miss_latency::.cpu.data 75714.285714                       # average SoftPFReq mshr miss latency
system.cpu.dcache.SoftPFReq_avg_mshr_miss_latency::total 75714.285714                       # average SoftPFReq mshr miss latency
system.cpu.dcache.WriteLineReq_hits::.cpu.data           44                       # number of WriteLineReq hits
system.cpu.dcache.WriteLineReq_hits::total           44                       # number of WriteLineReq hits
system.cpu.dcache.WriteLineReq_misses::.cpu.data           58                       # number of WriteLineReq misses
system.cpu.dcache.WriteLineReq_misses::total           58                       # number of WriteLineReq misses
system.cpu.dcache.WriteLineReq_miss_latency::.cpu.data      1827500                       # number of WriteLineReq miss cycles
system.cpu.dcache.WriteLineReq_miss_latency::total      1827500                       # number of WriteLineReq miss cycles
system.cpu.dcache.WriteLineReq_accesses::.cpu.data          102                       # number of WriteLineReq accesses(hits+misses)
system.cpu.dcache.WriteLineReq_accesses::total          102                       # number of WriteLineReq accesses(hits+misses)
system.cpu.dcache.WriteLineReq_miss_rate::.cpu.data     0.568627                       # miss rate for WriteLineReq accesses
system.cpu.dcache.WriteLineReq_miss_rate::total     0.568627                       # miss rate for WriteLineReq accesses
system.cpu.dcache.WriteLineReq_avg_miss_latency::.cpu.data 31508.620690                       # average WriteLineReq miss latency
system.cpu.dcache.WriteLineReq_avg_miss_latency::total 31508.620690                       # average WriteLineReq miss latency
system.cpu.dcache.WriteLineReq_mshr_misses::.cpu.data           58                       # number of WriteLineReq MSHR misses
system.cpu.dcache.WriteLineReq_mshr_misses::total           58                       # number of WriteLineReq MSHR misses
system.cpu.dcache.WriteLineReq_mshr_miss_latency::.cpu.data      1769500                       # number of WriteLineReq MSHR miss cycles
system.cpu.dcache.WriteLineReq_mshr_miss_latency::total      1769500                       # number of WriteLineReq MSHR miss cycles
system.cpu.dcache.WriteLineReq_mshr_miss_rate::.cpu.data     0.568627                       # mshr miss rate for WriteLineReq accesses
system.cpu.dcache.WriteLineReq_mshr_miss_rate::total     0.568627                       # mshr miss rate for WriteLineReq accesses
system.cpu.dcache.WriteLineReq_avg_mshr_miss_latency::.cpu.data 30508.620690                       # average WriteLineReq mshr miss latency
system.cpu.dcache.WriteLineReq_avg_mshr_miss_latency::total 30508.620690                       # average WriteLineReq mshr miss latency
system.cpu.dcache.LoadLockedReq_hits::.cpu.data          157                       # number of LoadLockedReq hits
system.cpu.dcache.LoadLockedReq_hits::total          157                       # number of LoadLockedReq hits
system.cpu.dcache.LoadLockedReq_misses::.cpu.data            2                       # number of LoadLockedReq misses
system.cpu.dcache.LoadLockedReq_misses::total            2                       # number of LoadLockedReq misses
system.cpu.dcache.LoadLockedReq_miss_latency::.cpu.data       453000                       # number of LoadLockedReq miss cycles
system.cpu.dcache.LoadLockedReq_miss_latency::total       453000                       # number of LoadLockedReq miss cycles
system.cpu.dcache.LoadLockedReq_accesses::.cpu.data          159                       # number of LoadLockedReq accesses(hits+misses)
system.cpu.dcache.LoadLockedReq_accesses::total          159                       # number of LoadLockedReq accesses(hits+misses)
system.cpu.dcache.LoadLockedReq_miss_rate::.cpu.data     0.012579                       # miss rate for LoadLockedReq accesses
system.cpu.dcache.LoadLockedReq_miss_rate::total     0.012579                       # miss rate for LoadLockedReq accesses
system.cpu.dcache.LoadLockedReq_avg_miss_latency::.cpu.data       226500                       # average LoadLockedReq miss latency
system.cpu.dcache.LoadLockedReq_avg_miss_latency::total       226500                       # average LoadLockedReq miss latency
system.cpu.dcache.LoadLockedReq_mshr_hits::.cpu.data            1                       # number of LoadLockedReq MSHR hits
system.cpu.dcache.LoadLockedReq_mshr_hits::total            1                       # number of LoadLockedReq MSHR hits
system.cpu.dcache.LoadLockedReq_mshr_misses::.cpu.data            1                       # number of LoadLockedReq MSHR misses
system.cpu.dcache.LoadLockedReq_mshr_misses::total            1                       # number of LoadLockedReq MSHR misses
system.cpu.dcache.LoadLockedReq_mshr_miss_latency::.cpu.data       351000                       # number of LoadLockedReq MSHR miss cycles
system.cpu.dcache.LoadLockedReq_mshr_miss_latency::total       351000                       # number of LoadLockedReq MSHR miss cycles
system.cpu.dcache.LoadLockedReq_mshr_miss_rate::.cpu.data     0.006289                       # mshr miss rate for LoadLockedReq accesses
system.cpu.dcache.LoadLockedReq_mshr_miss_rate::total     0.006289                       # mshr miss rate for LoadLockedReq accesses
system.cpu.dcache.LoadLockedReq_avg_mshr_miss_latency::.cpu.data       351000                       # average LoadLockedReq mshr miss latency
system.cpu.dcache.LoadLockedReq_avg_mshr_miss_latency::total       351000                       # average LoadLockedReq mshr miss latency
system.cpu.dcache.StoreCondReq_hits::.cpu.data          138                       # number of StoreCondReq hits
system.cpu.dcache.StoreCondReq_hits::total          138                       # number of StoreCondReq hits
system.cpu.dcache.StoreCondReq_accesses::.cpu.data          138                       # number of StoreCondReq accesses(hits+misses)
system.cpu.dcache.StoreCondReq_accesses::total          138                       # number of StoreCondReq accesses(hits+misses)
system.cpu.dcache.power_state.pwrStateResidencyTicks::UNDEFINED   7404039500                       # Cumulative time (in ticks) in various power states
system.cpu.dcache.tags.tagsinuse          1010.552859                       # Cycle average of tags in use
system.cpu.dcache.tags.total_refs              366614                       # Total number of references to valid blocks.
system.cpu.dcache.tags.sampled_refs            304042                       # Sample count of references to valid blocks.
system.cpu.dcache.tags.avg_refs              1.205801                       # Average number of references to valid blocks.
system.cpu.dcache.tags.warmup_cycle            176500                       # Cycle when the warmup percentage was hit.
system.cpu.dcache.tags.occ_blocks::.cpu.data  1010.552859                       # Average occupied blocks per requestor
system.cpu.dcache.tags.occ_percent::.cpu.data     0.986868                       # Average percentage of cache occupancy
system.cpu.dcache.tags.occ_percent::total     0.986868                       # Average percentage of cache occupancy
system.cpu.dcache.tags.occ_task_id_blocks::1024         1024                       # Occupied blocks per task id
system.cpu.dcache.tags.age_task_id_blocks_1024::0          362                       # Occupied blocks per task id
system.cpu.dcache.tags.age_task_id_blocks_1024::1          662                       # Occupied blocks per task id
system.cpu.dcache.tags.occ_task_id_percent::1024            1                       # Percentage of cache occupancy per task id
system.cpu.dcache.tags.tag_accesses           5288422                       # Number of tag accesses
system.cpu.dcache.tags.data_accesses          5288422                       # Number of data accesses
system.cpu.dcache.tags.power_state.pwrStateResidencyTicks::UNDEFINED   7404039500                       # Cumulative time (in ticks) in various power states
system.cpu.power_state.pwrStateResidencyTicks::ON   7404039500                       # Cumulative time (in ticks) in various power states

---------- End Simulation Statistics   ----------
