
---------- Begin Simulation Statistics ----------
final_tick                                   61863500                       # Number of ticks from beginning of simulation (restored from checkpoints and never reset)
host_inst_rate                                  37546                       # Simulator instruction rate (inst/s)
host_mem_usage                                 870364                       # Number of bytes of host memory used
host_op_rate                                    46733                       # Simulator op (including micro ops) rate (op/s)
host_seconds                                     0.75                       # Real time elapsed on the host
host_tick_rate                               81974156                       # Simulator tick rate (ticks/s)
sim_freq                                 1000000000000                       # Frequency of simulated ticks
sim_insts                                       28328                       # Number of instructions simulated
sim_ops                                         35267                       # Number of ops (including micro ops) simulated
sim_seconds                                  0.000062                       # Number of seconds simulated
sim_ticks                                    61863500                       # Number of ticks simulated
system.cpu.branchPred.BTBCorrect                    0                       # Number of correct BTB predictions (this stat may not work properly.
system.cpu.branchPred.BTBHitPct             70.766160                       # BTB Hit Percentage
system.cpu.branchPred.BTBHits                    4609                       # Number of BTB hits
system.cpu.branchPred.BTBLookups                 6513                       # Number of BTB lookups
system.cpu.branchPred.RASInCorrect                  3                       # Number of incorrect RAS predictions.
system.cpu.branchPred.condIncorrect              1419                       # Number of conditional branches incorrect
system.cpu.branchPred.condPredicted              9371                       # Number of conditional branches predicted
system.cpu.branchPred.indirectHits                 61                       # Number of indirect target hits.
system.cpu.branchPred.indirectLookups             372                       # Number of indirect predictor lookups.
system.cpu.branchPred.indirectMisses              311                       # Number of indirect misses.
system.cpu.branchPred.lookups                   12995                       # Number of BP lookups
system.cpu.branchPred.usedRAS                    1043                       # Number of times the RAS was used to get a target.
system.cpu.branchPredindirectMispredicted          104                       # Number of mispredicted indirect branches.
system.cpu.cc_regfile_reads                     12438                       # number of cc regfile reads
system.cpu.cc_regfile_writes                    12189                       # number of cc regfile writes
system.cpu.commit.amos                              0                       # Number of atomic instructions committed
system.cpu.commit.branchMispredicts               951                       # The number of times a branch was mispredicted
system.cpu.commit.branches                       6653                       # Number of branches committed
system.cpu.commit.bw_lim_events                  1319                       # number cycles where commit BW limit reached
system.cpu.commit.commitNonSpecStalls              47                       # The number of times commit has been forced to stall to communicate backwards
system.cpu.commit.commitSquashedInsts           15861                       # The number of squashed insts skipped by commit
system.cpu.commit.committedInsts                28408                       # Number of instructions committed
system.cpu.commit.committedOps                  35347                       # Number of ops (including micro ops) committed
system.cpu.commit.committed_per_cycle::samples        46736                       # Number of insts commited each cycle
system.cpu.commit.committed_per_cycle::mean     0.756312                       # Number of insts commited each cycle
system.cpu.commit.committed_per_cycle::stdev     1.777862                       # Number of insts commited each cycle
system.cpu.commit.committed_per_cycle::underflows            0      0.00%      0.00% # Number of insts commited each cycle
system.cpu.commit.committed_per_cycle::0        35863     76.74%     76.74% # Number of insts commited each cycle
system.cpu.commit.committed_per_cycle::1         3424      7.33%     84.06% # Number of insts commited each cycle
system.cpu.commit.committed_per_cycle::2         2000      4.28%     88.34% # Number of insts commited each cycle
system.cpu.commit.committed_per_cycle::3         1226      2.62%     90.96% # Number of insts commited each cycle
system.cpu.commit.committed_per_cycle::4         1760      3.77%     94.73% # Number of insts commited each cycle
system.cpu.commit.committed_per_cycle::5          489      1.05%     95.78% # Number of insts commited each cycle
system.cpu.commit.committed_per_cycle::6          377      0.81%     96.58% # Number of insts commited each cycle
system.cpu.commit.committed_per_cycle::7          278      0.59%     97.18% # Number of insts commited each cycle
system.cpu.commit.committed_per_cycle::8         1319      2.82%    100.00% # Number of insts commited each cycle
system.cpu.commit.committed_per_cycle::overflows            0      0.00%    100.00% # Number of insts commited each cycle
system.cpu.commit.committed_per_cycle::min_value            0                       # Number of insts commited each cycle
system.cpu.commit.committed_per_cycle::max_value            8                       # Number of insts commited each cycle
system.cpu.commit.committed_per_cycle::total        46736                       # Number of insts commited each cycle
system.cpu.commit.fp_insts                          0                       # Number of committed floating point instructions.
system.cpu.commit.function_calls                  548                       # Number of function calls committed.
system.cpu.commit.int_insts                     31603                       # Number of committed integer instructions.
system.cpu.commit.loads                          4526                       # Number of loads committed
system.cpu.commit.membars                          20                       # Number of memory barriers committed
system.cpu.commit.op_class_0::No_OpClass            7      0.02%      0.02% # Class of committed instruction
system.cpu.commit.op_class_0::IntAlu            24100     68.18%     68.20% # Class of committed instruction
system.cpu.commit.op_class_0::IntMult              42      0.12%     68.32% # Class of committed instruction
system.cpu.commit.op_class_0::IntDiv                2      0.01%     68.33% # Class of committed instruction
system.cpu.commit.op_class_0::FloatAdd              0      0.00%     68.33% # Class of committed instruction
system.cpu.commit.op_class_0::FloatCmp              0      0.00%     68.33% # Class of committed instruction
system.cpu.commit.op_class_0::FloatCvt              0      0.00%     68.33% # Class of committed instruction
system.cpu.commit.op_class_0::FloatMult             0      0.00%     68.33% # Class of committed instruction
system.cpu.commit.op_class_0::FloatMultAcc            0      0.00%     68.33% # Class of committed instruction
system.cpu.commit.op_class_0::FloatDiv              0      0.00%     68.33% # Class of committed instruction
system.cpu.commit.op_class_0::FloatMisc             0      0.00%     68.33% # Class of committed instruction
system.cpu.commit.op_class_0::FloatSqrt             0      0.00%     68.33% # Class of committed instruction
system.cpu.commit.op_class_0::SimdAdd              24      0.07%     68.39% # Class of committed instruction
system.cpu.commit.op_class_0::SimdAddAcc            0      0.00%     68.39% # Class of committed instruction
system.cpu.commit.op_class_0::SimdAlu              28      0.08%     68.47% # Class of committed instruction
system.cpu.commit.op_class_0::SimdCmp              28      0.08%     68.55% # Class of committed instruction
system.cpu.commit.op_class_0::SimdCvt               0      0.00%     68.55% # Class of committed instruction
system.cpu.commit.op_class_0::SimdMisc             32      0.09%     68.64% # Class of committed instruction
system.cpu.commit.op_class_0::SimdMult              0      0.00%     68.64% # Class of committed instruction
system.cpu.commit.op_class_0::SimdMultAcc            0      0.00%     68.64% # Class of committed instruction
system.cpu.commit.op_class_0::SimdShift             0      0.00%     68.64% # Class of committed instruction
system.cpu.commit.op_class_0::SimdShiftAcc            0      0.00%     68.64% # Class of committed instruction
system.cpu.commit.op_class_0::SimdDiv               0      0.00%     68.64% # Class of committed instruction
system.cpu.commit.op_class_0::SimdSqrt              0      0.00%     68.64% # Class of committed instruction
system.cpu.commit.op_class_0::SimdFloatAdd            0      0.00%     68.64% # Class of committed instruction
system.cpu.commit.op_class_0::SimdFloatAlu            0      0.00%     68.64% # Class of committed instruction
system.cpu.commit.op_class_0::SimdFloatCmp            0      0.00%     68.64% # Class of committed instruction
system.cpu.commit.op_class_0::SimdFloatCvt            0      0.00%     68.64% # Class of committed instruction
system.cpu.commit.op_class_0::SimdFloatDiv            0      0.00%     68.64% # Class of committed instruction
system.cpu.commit.op_class_0::SimdFloatMisc            0      0.00%     68.64% # Class of committed instruction
system.cpu.commit.op_class_0::SimdFloatMult            0      0.00%     68.64% # Class of committed instruction
system.cpu.commit.op_class_0::SimdFloatMultAcc            0      0.00%     68.64% # Class of committed instruction
system.cpu.commit.op_class_0::SimdFloatSqrt            0      0.00%     68.64% # Class of committed instruction
system.cpu.commit.op_class_0::SimdReduceAdd            0      0.00%     68.64% # Class of committed instruction
system.cpu.commit.op_class_0::SimdReduceAlu            0      0.00%     68.64% # Class of committed instruction
system.cpu.commit.op_class_0::SimdReduceCmp            0      0.00%     68.64% # Class of committed instruction
system.cpu.commit.op_class_0::SimdFloatReduceAdd            0      0.00%     68.64% # Class of committed instruction
system.cpu.commit.op_class_0::SimdFloatReduceCmp            0      0.00%     68.64% # Class of committed instruction
system.cpu.commit.op_class_0::SimdAes               0      0.00%     68.64% # Class of committed instruction
system.cpu.commit.op_class_0::SimdAesMix            0      0.00%     68.64% # Class of committed instruction
system.cpu.commit.op_class_0::SimdSha1Hash            0      0.00%     68.64% # Class of committed instruction
system.cpu.commit.op_class_0::SimdSha1Hash2            0      0.00%     68.64% # Class of committed instruction
system.cpu.commit.op_class_0::SimdSha256Hash            0      0.00%     68.64% # Class of committed instruction
system.cpu.commit.op_class_0::SimdSha256Hash2            0      0.00%     68.64% # Class of committed instruction
system.cpu.commit.op_class_0::SimdShaSigma2            0      0.00%     68.64% # Class of committed instruction
system.cpu.commit.op_class_0::SimdShaSigma3            0      0.00%     68.64% # Class of committed instruction
system.cpu.commit.op_class_0::SimdPredAlu            0      0.00%     68.64% # Class of committed instruction
system.cpu.commit.op_class_0::MemRead            4526     12.80%     81.45% # Class of committed instruction
system.cpu.commit.op_class_0::MemWrite           6558     18.55%    100.00% # Class of committed instruction
system.cpu.commit.op_class_0::FloatMemRead            0      0.00%    100.00% # Class of committed instruction
system.cpu.commit.op_class_0::FloatMemWrite            0      0.00%    100.00% # Class of committed instruction
system.cpu.commit.op_class_0::IprAccess             0      0.00%    100.00% # Class of committed instruction
system.cpu.commit.op_class_0::InstPrefetch            0      0.00%    100.00% # Class of committed instruction
system.cpu.commit.op_class_0::total             35347                       # Class of committed instruction
system.cpu.commit.refs                          11084                       # Number of memory references committed
system.cpu.commit.swp_count                         0                       # Number of s/w prefetches committed
system.cpu.commit.vec_insts                       447                       # Number of committed Vector instructions.
system.cpu.committedInsts                       28328                       # Number of Instructions Simulated
system.cpu.committedOps                         35267                       # Number of Ops (including micro ops) Simulated
system.cpu.cpi                               4.367693                       # CPI: Cycles Per Instruction
system.cpu.cpi_total                         4.367693                       # CPI: Total CPI of All Threads
system.cpu.decode.BlockedCycles                 17589                       # Number of cycles decode is blocked
system.cpu.decode.BranchMispred                   500                       # Number of times decode detected a branch misprediction
system.cpu.decode.BranchResolved                 4792                       # Number of times decode resolved a branch
system.cpu.decode.DecodedInsts                  57476                       # Number of instructions handled by decode
system.cpu.decode.IdleCycles                    20339                       # Number of cycles decode is idle
system.cpu.decode.RunCycles                      9622                       # Number of cycles decode is running
system.cpu.decode.SquashCycles                    993                       # Number of cycles decode is squashing
system.cpu.decode.SquashedInsts                  1628                       # Number of squashed instructions handled by decode
system.cpu.decode.UnblockCycles                   769                       # Number of cycles decode is unblocking
system.cpu.dtb.accesses                             0                       # DTB accesses
system.cpu.dtb.align_faults                         0                       # Number of TLB faults due to alignment restrictions
system.cpu.dtb.domain_faults                        0                       # Number of TLB faults due to domain restrictions
system.cpu.dtb.flush_entries                        0                       # Number of entries that have been flushed from TLB
system.cpu.dtb.flush_tlb                            0                       # Number of times complete TLB was flushed
system.cpu.dtb.flush_tlb_asid                       0                       # Number of times TLB was flushed by ASID
system.cpu.dtb.flush_tlb_mva                        0                       # Number of times TLB was flushed by MVA
system.cpu.dtb.flush_tlb_mva_asid                   0                       # Number of times TLB was flushed by MVA & ASID
system.cpu.dtb.hits                                 0                       # DTB hits
system.cpu.dtb.inst_accesses                        0                       # ITB inst accesses
system.cpu.dtb.inst_hits                            0                       # ITB inst hits
system.cpu.dtb.inst_misses                          0                       # ITB inst misses
system.cpu.dtb.misses                               0                       # DTB misses
system.cpu.dtb.perms_faults                         0                       # Number of TLB faults due to permissions restrictions
system.cpu.dtb.prefetch_faults                      0                       # Number of TLB faults due to prefetch
system.cpu.dtb.read_accesses                        0                       # DTB read accesses
system.cpu.dtb.read_hits                            0                       # DTB read hits
system.cpu.dtb.read_misses                          0                       # DTB read misses
system.cpu.dtb.stage2_mmu.stage2_tlb.accesses            0                       # DTB accesses
system.cpu.dtb.stage2_mmu.stage2_tlb.align_faults            0                       # Number of TLB faults due to alignment restrictions
system.cpu.dtb.stage2_mmu.stage2_tlb.domain_faults            0                       # Number of TLB faults due to domain restrictions
system.cpu.dtb.stage2_mmu.stage2_tlb.flush_entries            0                       # Number of entries that have been flushed from TLB
system.cpu.dtb.stage2_mmu.stage2_tlb.flush_tlb            0                       # Number of times complete TLB was flushed
system.cpu.dtb.stage2_mmu.stage2_tlb.flush_tlb_asid            0                       # Number of times TLB was flushed by ASID
system.cpu.dtb.stage2_mmu.stage2_tlb.flush_tlb_mva            0                       # Number of times TLB was flushed by MVA
system.cpu.dtb.stage2_mmu.stage2_tlb.flush_tlb_mva_asid            0                       # Number of times TLB was flushed by MVA & ASID
system.cpu.dtb.stage2_mmu.stage2_tlb.hits            0                       # DTB hits
system.cpu.dtb.stage2_mmu.stage2_tlb.inst_accesses            0                       # ITB inst accesses
system.cpu.dtb.stage2_mmu.stage2_tlb.inst_hits            0                       # ITB inst hits
system.cpu.dtb.stage2_mmu.stage2_tlb.inst_misses            0                       # ITB inst misses
system.cpu.dtb.stage2_mmu.stage2_tlb.misses            0                       # DTB misses
system.cpu.dtb.stage2_mmu.stage2_tlb.perms_faults            0                       # Number of TLB faults due to permissions restrictions
system.cpu.dtb.stage2_mmu.stage2_tlb.prefetch_faults            0                       # Number of TLB faults due to prefetch
system.cpu.dtb.stage2_mmu.stage2_tlb.read_accesses            0                       # DTB read accesses
system.cpu.dtb.stage2_mmu.stage2_tlb.read_hits            0                       # DTB read hits
system.cpu.dtb.stage2_mmu.stage2_tlb.read_misses            0                       # DTB read misses
system.cpu.dtb.stage2_mmu.stage2_tlb.walker.walkRequestOrigin_Requested::Data            0                       # Table walker requests started/completed, data/inst
system.cpu.dtb.stage2_mmu.stage2_tlb.walker.walkRequestOrigin_Requested::Inst            0                       # Table walker requests started/completed, data/inst
system.cpu.dtb.stage2_mmu.stage2_tlb.walker.walkRequestOrigin_Requested::total            0                       # Table walker requests started/completed, data/inst
system.cpu.dtb.stage2_mmu.stage2_tlb.walker.walkRequestOrigin_Completed::Data            0                       # Table walker requests started/completed, data/inst
system.cpu.dtb.stage2_mmu.stage2_tlb.walker.walkRequestOrigin_Completed::Inst            0                       # Table walker requests started/completed, data/inst
system.cpu.dtb.stage2_mmu.stage2_tlb.walker.walkRequestOrigin_Completed::total            0                       # Table walker requests started/completed, data/inst
system.cpu.dtb.stage2_mmu.stage2_tlb.walker.walkRequestOrigin::total            0                       # Table walker requests started/completed, data/inst
system.cpu.dtb.stage2_mmu.stage2_tlb.walker.walks            0                       # Table walker walks requested
system.cpu.dtb.stage2_mmu.stage2_tlb.write_accesses            0                       # DTB write accesses
system.cpu.dtb.stage2_mmu.stage2_tlb.write_hits            0                       # DTB write hits
system.cpu.dtb.stage2_mmu.stage2_tlb.write_misses            0                       # DTB write misses
system.cpu.dtb.walker.walkRequestOrigin_Requested::Data            0                       # Table walker requests started/completed, data/inst
system.cpu.dtb.walker.walkRequestOrigin_Requested::Inst            0                       # Table walker requests started/completed, data/inst
system.cpu.dtb.walker.walkRequestOrigin_Requested::total            0                       # Table walker requests started/completed, data/inst
system.cpu.dtb.walker.walkRequestOrigin_Completed::Data            0                       # Table walker requests started/completed, data/inst
system.cpu.dtb.walker.walkRequestOrigin_Completed::Inst            0                       # Table walker requests started/completed, data/inst
system.cpu.dtb.walker.walkRequestOrigin_Completed::total            0                       # Table walker requests started/completed, data/inst
system.cpu.dtb.walker.walkRequestOrigin::total            0                       # Table walker requests started/completed, data/inst
system.cpu.dtb.walker.walks                         0                       # Table walker walks requested
system.cpu.dtb.write_accesses                       0                       # DTB write accesses
system.cpu.dtb.write_hits                           0                       # DTB write hits
system.cpu.dtb.write_misses                         0                       # DTB write misses
system.cpu.fetch.Branches                       12995                       # Number of branches that fetch encountered
system.cpu.fetch.CacheLines                      7534                       # Number of cache lines fetched
system.cpu.fetch.Cycles                         23777                       # Number of cycles fetch has run and was not squashing or blocked
system.cpu.fetch.IcacheSquashes                   847                       # Number of outstanding Icache misses that were squashed
system.cpu.fetch.IcacheWaitRetryStallCycles           29                       # Number of stall cycles due to full MSHR
system.cpu.fetch.Insts                          55033                       # Number of instructions fetch has processed
system.cpu.fetch.MiscStallCycles                   19                       # Number of cycles fetch has spent waiting on interrupts, or bad addresses, or out of MSHRs
system.cpu.fetch.PendingTrapStallCycles            99                       # Number of stall cycles due to pending traps
system.cpu.fetch.SquashCycles                    2954                       # Number of cycles fetch has spent squashing
system.cpu.fetch.branchRate                  0.105029                       # Number of branch fetches per cycle
system.cpu.fetch.icacheStallCycles              23911                       # Number of cycles fetch is stalled on an Icache miss
system.cpu.fetch.predictedBranches               5713                       # Number of branches that fetch has predicted taken
system.cpu.fetch.rate                        0.444790                       # Number of inst fetches per cycle
system.cpu.fetch.rateDist::samples              49312                       # Number of instructions fetched each cycle (Total)
system.cpu.fetch.rateDist::mean              1.347542                       # Number of instructions fetched each cycle (Total)
system.cpu.fetch.rateDist::stdev             2.620787                       # Number of instructions fetched each cycle (Total)
system.cpu.fetch.rateDist::underflows               0      0.00%      0.00% # Number of instructions fetched each cycle (Total)
system.cpu.fetch.rateDist::0                    36676     74.38%     74.38% # Number of instructions fetched each cycle (Total)
system.cpu.fetch.rateDist::1                     1105      2.24%     76.62% # Number of instructions fetched each cycle (Total)
system.cpu.fetch.rateDist::2                     1172      2.38%     78.99% # Number of instructions fetched each cycle (Total)
system.cpu.fetch.rateDist::3                     1115      2.26%     81.25% # Number of instructions fetched each cycle (Total)
system.cpu.fetch.rateDist::4                     2331      4.73%     85.98% # Number of instructions fetched each cycle (Total)
system.cpu.fetch.rateDist::5                      967      1.96%     87.94% # Number of instructions fetched each cycle (Total)
system.cpu.fetch.rateDist::6                      730      1.48%     89.42% # Number of instructions fetched each cycle (Total)
system.cpu.fetch.rateDist::7                      611      1.24%     90.66% # Number of instructions fetched each cycle (Total)
system.cpu.fetch.rateDist::8                     4605      9.34%    100.00% # Number of instructions fetched each cycle (Total)
system.cpu.fetch.rateDist::overflows                0      0.00%    100.00% # Number of instructions fetched each cycle (Total)
system.cpu.fetch.rateDist::min_value                0                       # Number of instructions fetched each cycle (Total)
system.cpu.fetch.rateDist::max_value                8                       # Number of instructions fetched each cycle (Total)
system.cpu.fetch.rateDist::total                49312                       # Number of instructions fetched each cycle (Total)
system.cpu.icache.prefetcher.num_hwpf_issued         1134                       # number of hwpf issued
system.cpu.icache.prefetcher.pfBufferHit            4                       # number of redundant prefetches already in prefetch queue
system.cpu.icache.prefetcher.pfIdentified         1186                       # number of prefetch candidates identified
system.cpu.icache.prefetcher.pfInCache              0                       # number of redundant prefetches already in cache/mshr dropped
system.cpu.icache.prefetcher.pfRemovedFull            0                       # number of prefetches dropped due to prefetch queue size
system.cpu.icache.prefetcher.pfSpanPage            79                       # number of prefetches that crossed the page
system.cpu.idleCycles                           74416                       # Total number of cycles that the CPU has spent unscheduled due to idling
system.cpu.iew.branchMispredicts                 1087                       # Number of branch mispredicts detected at execute
system.cpu.iew.exec_branches                     8197                       # Number of branches executed
system.cpu.iew.exec_nop                           158                       # number of nop insts executed
system.cpu.iew.exec_rate                     0.369561                       # Inst execution rate
system.cpu.iew.exec_refs                        14361                       # number of memory reference insts executed
system.cpu.iew.exec_stores                       7688                       # Number of stores executed
system.cpu.iew.exec_swp                             0                       # number of swp insts executed
system.cpu.iew.iewBlockCycles                    2125                       # Number of cycles IEW is blocking
system.cpu.iew.iewDispLoadInsts                  7112                       # Number of dispatched load instructions
system.cpu.iew.iewDispNonSpecInsts                 68                       # Number of dispatched non-speculative instructions
system.cpu.iew.iewDispSquashedInsts               233                       # Number of squashed instructions skipped by dispatch
system.cpu.iew.iewDispStoreInsts                 8870                       # Number of dispatched store instructions
system.cpu.iew.iewDispatchedInsts               51308                       # Number of instructions dispatched to IQ
system.cpu.iew.iewExecLoadInsts                  6673                       # Number of load instructions executed
system.cpu.iew.iewExecSquashedInsts              1431                       # Number of squashed instructions skipped in execute
system.cpu.iew.iewExecutedInsts                 45725                       # Number of executed instructions
system.cpu.iew.iewIQFullEvents                     11                       # Number of times the IQ has become full, causing a stall
system.cpu.iew.iewIdleCycles                        0                       # Number of cycles IEW is idle
system.cpu.iew.iewLSQFullEvents                  1263                       # Number of times the LSQ has become full, causing a stall
system.cpu.iew.iewSquashCycles                    993                       # Number of cycles IEW is squashing
system.cpu.iew.iewUnblockCycles                  1270                       # Number of cycles IEW is unblocking
system.cpu.iew.lsq.thread0.blockedLoads             0                       # Number of blocked loads due to partial load-store forwarding
system.cpu.iew.lsq.thread0.cacheBlocked            95                       # Number of times an access to memory failed due to the cache being blocked
system.cpu.iew.lsq.thread0.forwLoads              112                       # Number of loads that had data forwarded from stores
system.cpu.iew.lsq.thread0.ignoredResponses            2                       # Number of memory responses ignored because the instruction is squashed
system.cpu.iew.lsq.thread0.invAddrLoads             0                       # Number of loads ignored due to an invalid address
system.cpu.iew.lsq.thread0.invAddrSwpfs             0                       # Number of software prefetches ignored due to an invalid address
system.cpu.iew.lsq.thread0.memOrderViolation           16                       # Number of memory ordering violations
system.cpu.iew.lsq.thread0.rescheduledLoads          134                       # Number of loads that were rescheduled
system.cpu.iew.lsq.thread0.squashedLoads         2586                       # Number of loads squashed
system.cpu.iew.lsq.thread0.squashedStores         2312                       # Number of stores squashed
system.cpu.iew.memOrderViolationEvents             16                       # Number of memory order violations
system.cpu.iew.predictedNotTakenIncorrect          948                       # Number of branches that were predicted not taken incorrectly
system.cpu.iew.predictedTakenIncorrect            139                       # Number of branches that were predicted taken incorrectly
system.cpu.iew.wb_consumers                     41277                       # num instructions consuming a value
system.cpu.iew.wb_count                         44012                       # cumulative count of insts written-back
system.cpu.iew.wb_fanout                     0.532766                       # average fanout of values written-back
system.cpu.iew.wb_producers                     21991                       # num instructions producing a value
system.cpu.iew.wb_rate                       0.355716                       # insts written-back per cycle
system.cpu.iew.wb_sent                          44774                       # cumulative count of insts sent to commit
system.cpu.int_regfile_reads                    51520                       # number of integer regfile reads
system.cpu.int_regfile_writes                   30516                       # number of integer regfile writes
system.cpu.ipc                               0.228954                       # IPC: Instructions Per Cycle
system.cpu.ipc_total                         0.228954                       # IPC: Total IPC of All Threads
system.cpu.iq.FU_type_0::No_OpClass                25      0.05%      0.05% # Type of FU issued
system.cpu.iq.FU_type_0::IntAlu                 31873     67.59%     67.64% # Type of FU issued
system.cpu.iq.FU_type_0::IntMult                   45      0.10%     67.74% # Type of FU issued
system.cpu.iq.FU_type_0::IntDiv                     2      0.00%     67.74% # Type of FU issued
system.cpu.iq.FU_type_0::FloatAdd                   0      0.00%     67.74% # Type of FU issued
system.cpu.iq.FU_type_0::FloatCmp                   0      0.00%     67.74% # Type of FU issued
system.cpu.iq.FU_type_0::FloatCvt                   0      0.00%     67.74% # Type of FU issued
system.cpu.iq.FU_type_0::FloatMult                  0      0.00%     67.74% # Type of FU issued
system.cpu.iq.FU_type_0::FloatMultAcc               0      0.00%     67.74% # Type of FU issued
system.cpu.iq.FU_type_0::FloatDiv                   0      0.00%     67.74% # Type of FU issued
system.cpu.iq.FU_type_0::FloatMisc                  0      0.00%     67.74% # Type of FU issued
system.cpu.iq.FU_type_0::FloatSqrt                  0      0.00%     67.74% # Type of FU issued
system.cpu.iq.FU_type_0::SimdAdd                   30      0.06%     67.81% # Type of FU issued
system.cpu.iq.FU_type_0::SimdAddAcc                 0      0.00%     67.81% # Type of FU issued
system.cpu.iq.FU_type_0::SimdAlu                   32      0.07%     67.87% # Type of FU issued
system.cpu.iq.FU_type_0::SimdCmp                   34      0.07%     67.95% # Type of FU issued
system.cpu.iq.FU_type_0::SimdCvt                    0      0.00%     67.95% # Type of FU issued
system.cpu.iq.FU_type_0::SimdMisc                  38      0.08%     68.03% # Type of FU issued
system.cpu.iq.FU_type_0::SimdMult                   0      0.00%     68.03% # Type of FU issued
system.cpu.iq.FU_type_0::SimdMultAcc                0      0.00%     68.03% # Type of FU issued
system.cpu.iq.FU_type_0::SimdShift                  0      0.00%     68.03% # Type of FU issued
system.cpu.iq.FU_type_0::SimdShiftAcc               0      0.00%     68.03% # Type of FU issued
system.cpu.iq.FU_type_0::SimdDiv                    0      0.00%     68.03% # Type of FU issued
system.cpu.iq.FU_type_0::SimdSqrt                   0      0.00%     68.03% # Type of FU issued
system.cpu.iq.FU_type_0::SimdFloatAdd               0      0.00%     68.03% # Type of FU issued
system.cpu.iq.FU_type_0::SimdFloatAlu               0      0.00%     68.03% # Type of FU issued
system.cpu.iq.FU_type_0::SimdFloatCmp               0      0.00%     68.03% # Type of FU issued
system.cpu.iq.FU_type_0::SimdFloatCvt               0      0.00%     68.03% # Type of FU issued
system.cpu.iq.FU_type_0::SimdFloatDiv               0      0.00%     68.03% # Type of FU issued
system.cpu.iq.FU_type_0::SimdFloatMisc              0      0.00%     68.03% # Type of FU issued
system.cpu.iq.FU_type_0::SimdFloatMult              0      0.00%     68.03% # Type of FU issued
system.cpu.iq.FU_type_0::SimdFloatMultAcc            0      0.00%     68.03% # Type of FU issued
system.cpu.iq.FU_type_0::SimdFloatSqrt              0      0.00%     68.03% # Type of FU issued
system.cpu.iq.FU_type_0::SimdReduceAdd              0      0.00%     68.03% # Type of FU issued
system.cpu.iq.FU_type_0::SimdReduceAlu              0      0.00%     68.03% # Type of FU issued
system.cpu.iq.FU_type_0::SimdReduceCmp              0      0.00%     68.03% # Type of FU issued
system.cpu.iq.FU_type_0::SimdFloatReduceAdd            0      0.00%     68.03% # Type of FU issued
system.cpu.iq.FU_type_0::SimdFloatReduceCmp            0      0.00%     68.03% # Type of FU issued
system.cpu.iq.FU_type_0::SimdAes                    0      0.00%     68.03% # Type of FU issued
system.cpu.iq.FU_type_0::SimdAesMix                 0      0.00%     68.03% # Type of FU issued
system.cpu.iq.FU_type_0::SimdSha1Hash               0      0.00%     68.03% # Type of FU issued
system.cpu.iq.FU_type_0::SimdSha1Hash2              0      0.00%     68.03% # Type of FU issued
system.cpu.iq.FU_type_0::SimdSha256Hash             0      0.00%     68.03% # Type of FU issued
system.cpu.iq.FU_type_0::SimdSha256Hash2            0      0.00%     68.03% # Type of FU issued
system.cpu.iq.FU_type_0::SimdShaSigma2              0      0.00%     68.03% # Type of FU issued
system.cpu.iq.FU_type_0::SimdShaSigma3              0      0.00%     68.03% # Type of FU issued
system.cpu.iq.FU_type_0::SimdPredAlu                0      0.00%     68.03% # Type of FU issued
system.cpu.iq.FU_type_0::MemRead                 6999     14.84%     82.87% # Type of FU issued
system.cpu.iq.FU_type_0::MemWrite                8078     17.13%    100.00% # Type of FU issued
system.cpu.iq.FU_type_0::FloatMemRead               0      0.00%    100.00% # Type of FU issued
system.cpu.iq.FU_type_0::FloatMemWrite              0      0.00%    100.00% # Type of FU issued
system.cpu.iq.FU_type_0::IprAccess                  0      0.00%    100.00% # Type of FU issued
system.cpu.iq.FU_type_0::InstPrefetch               0      0.00%    100.00% # Type of FU issued
system.cpu.iq.FU_type_0::total                  47156                       # Type of FU issued
system.cpu.iq.fp_alu_accesses                       0                       # Number of floating point alu accesses
system.cpu.iq.fp_inst_queue_reads                   0                       # Number of floating instruction queue reads
system.cpu.iq.fp_inst_queue_wakeup_accesses            0                       # Number of floating instruction queue wakeup accesses
system.cpu.iq.fp_inst_queue_writes                  0                       # Number of floating instruction queue writes
system.cpu.iq.fu_busy_cnt                         659                       # FU busy when requested
system.cpu.iq.fu_busy_rate                   0.013975                       # FU busy rate (busy events/executed inst)
system.cpu.iq.fu_full::No_OpClass                   0      0.00%      0.00% # attempts to use FU when none available
system.cpu.iq.fu_full::IntAlu                     231     35.05%     35.05% # attempts to use FU when none available
system.cpu.iq.fu_full::IntMult                      0      0.00%     35.05% # attempts to use FU when none available
system.cpu.iq.fu_full::IntDiv                       0      0.00%     35.05% # attempts to use FU when none available
system.cpu.iq.fu_full::FloatAdd                     0      0.00%     35.05% # attempts to use FU when none available
system.cpu.iq.fu_full::FloatCmp                     0      0.00%     35.05% # attempts to use FU when none available
system.cpu.iq.fu_full::FloatCvt                     0      0.00%     35.05% # attempts to use FU when none available
system.cpu.iq.fu_full::FloatMult                    0      0.00%     35.05% # attempts to use FU when none available
system.cpu.iq.fu_full::FloatMultAcc                 0      0.00%     35.05% # attempts to use FU when none available
system.cpu.iq.fu_full::FloatDiv                     0      0.00%     35.05% # attempts to use FU when none available
system.cpu.iq.fu_full::FloatMisc                    0      0.00%     35.05% # attempts to use FU when none available
system.cpu.iq.fu_full::FloatSqrt                    0      0.00%     35.05% # attempts to use FU when none available
system.cpu.iq.fu_full::SimdAdd                      0      0.00%     35.05% # attempts to use FU when none available
system.cpu.iq.fu_full::SimdAddAcc                   0      0.00%     35.05% # attempts to use FU when none available
system.cpu.iq.fu_full::SimdAlu                      1      0.15%     35.20% # attempts to use FU when none available
system.cpu.iq.fu_full::SimdCmp                      2      0.30%     35.51% # attempts to use FU when none available
system.cpu.iq.fu_full::SimdCvt                      0      0.00%     35.51% # attempts to use FU when none available
system.cpu.iq.fu_full::SimdMisc                     0      0.00%     35.51% # attempts to use FU when none available
system.cpu.iq.fu_full::SimdMult                     0      0.00%     35.51% # attempts to use FU when none available
system.cpu.iq.fu_full::SimdMultAcc                  0      0.00%     35.51% # attempts to use FU when none available
system.cpu.iq.fu_full::SimdShift                    0      0.00%     35.51% # attempts to use FU when none available
system.cpu.iq.fu_full::SimdShiftAcc                 0      0.00%     35.51% # attempts to use FU when none available
system.cpu.iq.fu_full::SimdDiv                      0      0.00%     35.51% # attempts to use FU when none available
system.cpu.iq.fu_full::SimdSqrt                     0      0.00%     35.51% # attempts to use FU when none available
system.cpu.iq.fu_full::SimdFloatAdd                 0      0.00%     35.51% # attempts to use FU when none available
system.cpu.iq.fu_full::SimdFloatAlu                 0      0.00%     35.51% # attempts to use FU when none available
system.cpu.iq.fu_full::SimdFloatCmp                 0      0.00%     35.51% # attempts to use FU when none available
system.cpu.iq.fu_full::SimdFloatCvt                 0      0.00%     35.51% # attempts to use FU when none available
system.cpu.iq.fu_full::SimdFloatDiv                 0      0.00%     35.51% # attempts to use FU when none available
system.cpu.iq.fu_full::SimdFloatMisc                0      0.00%     35.51% # attempts to use FU when none available
system.cpu.iq.fu_full::SimdFloatMult                0      0.00%     35.51% # attempts to use FU when none available
system.cpu.iq.fu_full::SimdFloatMultAcc             0      0.00%     35.51% # attempts to use FU when none available
system.cpu.iq.fu_full::SimdFloatSqrt                0      0.00%     35.51% # attempts to use FU when none available
system.cpu.iq.fu_full::SimdReduceAdd                0      0.00%     35.51% # attempts to use FU when none available
system.cpu.iq.fu_full::SimdReduceAlu                0      0.00%     35.51% # attempts to use FU when none available
system.cpu.iq.fu_full::SimdReduceCmp                0      0.00%     35.51% # attempts to use FU when none available
system.cpu.iq.fu_full::SimdFloatReduceAdd            0      0.00%     35.51% # attempts to use FU when none available
system.cpu.iq.fu_full::SimdFloatReduceCmp            0      0.00%     35.51% # attempts to use FU when none available
system.cpu.iq.fu_full::SimdAes                      0      0.00%     35.51% # attempts to use FU when none available
system.cpu.iq.fu_full::SimdAesMix                   0      0.00%     35.51% # attempts to use FU when none available
system.cpu.iq.fu_full::SimdSha1Hash                 0      0.00%     35.51% # attempts to use FU when none available
system.cpu.iq.fu_full::SimdSha1Hash2                0      0.00%     35.51% # attempts to use FU when none available
system.cpu.iq.fu_full::SimdSha256Hash               0      0.00%     35.51% # attempts to use FU when none available
system.cpu.iq.fu_full::SimdSha256Hash2              0      0.00%     35.51% # attempts to use FU when none available
system.cpu.iq.fu_full::SimdShaSigma2                0      0.00%     35.51% # attempts to use FU when none available
system.cpu.iq.fu_full::SimdShaSigma3                0      0.00%     35.51% # attempts to use FU when none available
system.cpu.iq.fu_full::SimdPredAlu                  0      0.00%     35.51% # attempts to use FU when none available
system.cpu.iq.fu_full::MemRead                    186     28.22%     63.73% # attempts to use FU when none available
system.cpu.iq.fu_full::MemWrite                   239     36.27%    100.00% # attempts to use FU when none available
system.cpu.iq.fu_full::FloatMemRead                 0      0.00%    100.00% # attempts to use FU when none available
system.cpu.iq.fu_full::FloatMemWrite                0      0.00%    100.00% # attempts to use FU when none available
system.cpu.iq.fu_full::IprAccess                    0      0.00%    100.00% # attempts to use FU when none available
system.cpu.iq.fu_full::InstPrefetch                 0      0.00%    100.00% # attempts to use FU when none available
system.cpu.iq.int_alu_accesses                  47001                       # Number of integer alu accesses
system.cpu.iq.int_inst_queue_reads             142896                       # Number of integer instruction queue reads
system.cpu.iq.int_inst_queue_wakeup_accesses        43411                       # Number of integer instruction queue wakeup accesses
system.cpu.iq.int_inst_queue_writes             65549                       # Number of integer instruction queue writes
system.cpu.iq.iqInstsAdded                      51082                       # Number of instructions added to the IQ (excludes non-spec)
system.cpu.iq.iqInstsIssued                     47156                       # Number of instructions issued
system.cpu.iq.iqNonSpecInstsAdded                  68                       # Number of non-speculative instructions added to the IQ
system.cpu.iq.iqSquashedInstsExamined           15882                       # Number of squashed instructions iterated over during squash; mainly for profiling
system.cpu.iq.iqSquashedInstsIssued               281                       # Number of squashed instructions issued
system.cpu.iq.iqSquashedNonSpecRemoved             21                       # Number of squashed non-spec instructions that were removed
system.cpu.iq.iqSquashedOperandsExamined        10561                       # Number of squashed operands that are examined and possibly removed from graph
system.cpu.iq.issued_per_cycle::samples         49312                       # Number of insts issued each cycle
system.cpu.iq.issued_per_cycle::mean         0.956278                       # Number of insts issued each cycle
system.cpu.iq.issued_per_cycle::stdev        1.779332                       # Number of insts issued each cycle
system.cpu.iq.issued_per_cycle::underflows            0      0.00%      0.00% # Number of insts issued each cycle
system.cpu.iq.issued_per_cycle::0               34483     69.93%     69.93% # Number of insts issued each cycle
system.cpu.iq.issued_per_cycle::1                3381      6.86%     76.78% # Number of insts issued each cycle
system.cpu.iq.issued_per_cycle::2                3060      6.21%     82.99% # Number of insts issued each cycle
system.cpu.iq.issued_per_cycle::3                2330      4.73%     87.71% # Number of insts issued each cycle
system.cpu.iq.issued_per_cycle::4                2782      5.64%     93.36% # Number of insts issued each cycle
system.cpu.iq.issued_per_cycle::5                1429      2.90%     96.25% # Number of insts issued each cycle
system.cpu.iq.issued_per_cycle::6                 969      1.97%     98.22% # Number of insts issued each cycle
system.cpu.iq.issued_per_cycle::7                 446      0.90%     99.12% # Number of insts issued each cycle
system.cpu.iq.issued_per_cycle::8                 432      0.88%    100.00% # Number of insts issued each cycle
system.cpu.iq.issued_per_cycle::overflows            0      0.00%    100.00% # Number of insts issued each cycle
system.cpu.iq.issued_per_cycle::min_value            0                       # Number of insts issued each cycle
system.cpu.iq.issued_per_cycle::max_value            8                       # Number of insts issued each cycle
system.cpu.iq.issued_per_cycle::total           49312                       # Number of insts issued each cycle
system.cpu.iq.rate                           0.381126                       # Inst issue rate
system.cpu.iq.vec_alu_accesses                    789                       # Number of vector alu accesses
system.cpu.iq.vec_inst_queue_reads               1668                       # Number of vector instruction queue reads
system.cpu.iq.vec_inst_queue_wakeup_accesses          601                       # Number of vector instruction queue wakeup accesses
system.cpu.iq.vec_inst_queue_writes              1499                       # Number of vector instruction queue writes
system.cpu.itb.accesses                             0                       # DTB accesses
system.cpu.itb.align_faults                         0                       # Number of TLB faults due to alignment restrictions
system.cpu.itb.domain_faults                        0                       # Number of TLB faults due to domain restrictions
system.cpu.itb.flush_entries                        0                       # Number of entries that have been flushed from TLB
system.cpu.itb.flush_tlb                            0                       # Number of times complete TLB was flushed
system.cpu.itb.flush_tlb_asid                       0                       # Number of times TLB was flushed by ASID
system.cpu.itb.flush_tlb_mva                        0                       # Number of times TLB was flushed by MVA
system.cpu.itb.flush_tlb_mva_asid                   0                       # Number of times TLB was flushed by MVA & ASID
system.cpu.itb.hits                                 0                       # DTB hits
system.cpu.itb.inst_accesses                        0                       # ITB inst accesses
system.cpu.itb.inst_hits                            0                       # ITB inst hits
system.cpu.itb.inst_misses                          0                       # ITB inst misses
system.cpu.itb.misses                               0                       # DTB misses
system.cpu.itb.perms_faults                         0                       # Number of TLB faults due to permissions restrictions
system.cpu.itb.prefetch_faults                      0                       # Number of TLB faults due to prefetch
system.cpu.itb.read_accesses                        0                       # DTB read accesses
system.cpu.itb.read_hits                            0                       # DTB read hits
system.cpu.itb.read_misses                          0                       # DTB read misses
system.cpu.itb.stage2_mmu.stage2_tlb.accesses            0                       # DTB accesses
system.cpu.itb.stage2_mmu.stage2_tlb.align_faults            0                       # Number of TLB faults due to alignment restrictions
system.cpu.itb.stage2_mmu.stage2_tlb.domain_faults            0                       # Number of TLB faults due to domain restrictions
system.cpu.itb.stage2_mmu.stage2_tlb.flush_entries            0                       # Number of entries that have been flushed from TLB
system.cpu.itb.stage2_mmu.stage2_tlb.flush_tlb            0                       # Number of times complete TLB was flushed
system.cpu.itb.stage2_mmu.stage2_tlb.flush_tlb_asid            0                       # Number of times TLB was flushed by ASID
system.cpu.itb.stage2_mmu.stage2_tlb.flush_tlb_mva            0                       # Number of times TLB was flushed by MVA
system.cpu.itb.stage2_mmu.stage2_tlb.flush_tlb_mva_asid            0                       # Number of times TLB was flushed by MVA & ASID
system.cpu.itb.stage2_mmu.stage2_tlb.hits            0                       # DTB hits
system.cpu.itb.stage2_mmu.stage2_tlb.inst_accesses            0                       # ITB inst accesses
system.cpu.itb.stage2_mmu.stage2_tlb.inst_hits            0                       # ITB inst hits
system.cpu.itb.stage2_mmu.stage2_tlb.inst_misses            0                       # ITB inst misses
system.cpu.itb.stage2_mmu.stage2_tlb.misses            0                       # DTB misses
system.cpu.itb.stage2_mmu.stage2_tlb.perms_faults            0                       # Number of TLB faults due to permissions restrictions
system.cpu.itb.stage2_mmu.stage2_tlb.prefetch_faults            0                       # Number of TLB faults due to prefetch
system.cpu.itb.stage2_mmu.stage2_tlb.read_accesses            0                       # DTB read accesses
system.cpu.itb.stage2_mmu.stage2_tlb.read_hits            0                       # DTB read hits
system.cpu.itb.stage2_mmu.stage2_tlb.read_misses            0                       # DTB read misses
system.cpu.itb.stage2_mmu.stage2_tlb.walker.walkRequestOrigin_Requested::Data            0                       # Table walker requests started/completed, data/inst
system.cpu.itb.stage2_mmu.stage2_tlb.walker.walkRequestOrigin_Requested::Inst            0                       # Table walker requests started/completed, data/inst
system.cpu.itb.stage2_mmu.stage2_tlb.walker.walkRequestOrigin_Requested::total            0                       # Table walker requests started/completed, data/inst
system.cpu.itb.stage2_mmu.stage2_tlb.walker.walkRequestOrigin_Completed::Data            0                       # Table walker requests started/completed, data/inst
system.cpu.itb.stage2_mmu.stage2_tlb.walker.walkRequestOrigin_Completed::Inst            0                       # Table walker requests started/completed, data/inst
system.cpu.itb.stage2_mmu.stage2_tlb.walker.walkRequestOrigin_Completed::total            0                       # Table walker requests started/completed, data/inst
system.cpu.itb.stage2_mmu.stage2_tlb.walker.walkRequestOrigin::total            0                       # Table walker requests started/completed, data/inst
system.cpu.itb.stage2_mmu.stage2_tlb.walker.walks            0                       # Table walker walks requested
system.cpu.itb.stage2_mmu.stage2_tlb.write_accesses            0                       # DTB write accesses
system.cpu.itb.stage2_mmu.stage2_tlb.write_hits            0                       # DTB write hits
system.cpu.itb.stage2_mmu.stage2_tlb.write_misses            0                       # DTB write misses
system.cpu.itb.walker.walkRequestOrigin_Requested::Data            0                       # Table walker requests started/completed, data/inst
system.cpu.itb.walker.walkRequestOrigin_Requested::Inst            0                       # Table walker requests started/completed, data/inst
system.cpu.itb.walker.walkRequestOrigin_Requested::total            0                       # Table walker requests started/completed, data/inst
system.cpu.itb.walker.walkRequestOrigin_Completed::Data            0                       # Table walker requests started/completed, data/inst
system.cpu.itb.walker.walkRequestOrigin_Completed::Inst            0                       # Table walker requests started/completed, data/inst
system.cpu.itb.walker.walkRequestOrigin_Completed::total            0                       # Table walker requests started/completed, data/inst
system.cpu.itb.walker.walkRequestOrigin::total            0                       # Table walker requests started/completed, data/inst
system.cpu.itb.walker.walks                         0                       # Table walker walks requested
system.cpu.itb.write_accesses                       0                       # DTB write accesses
system.cpu.itb.write_hits                           0                       # DTB write hits
system.cpu.itb.write_misses                         0                       # DTB write misses
system.cpu.memDep0.conflictingLoads                17                       # Number of conflicting loads.
system.cpu.memDep0.conflictingStores               25                       # Number of conflicting stores.
system.cpu.memDep0.insertedLoads                 7112                       # Number of loads inserted to the mem dependence unit.
system.cpu.memDep0.insertedStores                8870                       # Number of stores inserted to the mem dependence unit.
system.cpu.misc_regfile_reads                   35664                       # number of misc regfile reads
system.cpu.misc_regfile_writes                     81                       # number of misc regfile writes
system.cpu.numCycles                           123728                       # number of cpu cycles simulated
system.cpu.numWorkItemsCompleted                    0                       # number of work items this cpu completed
system.cpu.numWorkItemsStarted                      0                       # number of work items this cpu started
system.cpu.rename.BlockCycles                    3678                       # Number of cycles rename is blocking
system.cpu.rename.CommittedMaps                 34401                       # Number of HB maps that are committed
system.cpu.rename.IQFullEvents                     62                       # Number of times rename has blocked due to IQ full
system.cpu.rename.IdleCycles                    21300                       # Number of cycles rename is idle
system.cpu.rename.LQFullEvents                    165                       # Number of times rename has blocked due to LQ full
system.cpu.rename.ROBFullEvents                    16                       # Number of times rename has blocked due to ROB full
system.cpu.rename.RenameLookups                 81297                       # Number of register rename lookups that rename has made
system.cpu.rename.RenamedInsts                  54612                       # Number of instructions processed by rename
system.cpu.rename.RenamedOperands               52012                       # Number of destination operands rename has renamed
system.cpu.rename.RunCycles                      9384                       # Number of cycles rename is running
system.cpu.rename.SQFullEvents                   4768                       # Number of times rename has blocked due to SQ full
system.cpu.rename.SquashCycles                    993                       # Number of cycles rename is squashing
system.cpu.rename.UnblockCycles                  5329                       # Number of cycles rename is unblocking
system.cpu.rename.UndoneMaps                    17611                       # Number of HB maps that are undone due to squashing
system.cpu.rename.int_rename_lookups            61484                       # Number of integer rename lookups
system.cpu.rename.serializeStallCycles           8628                       # count of cycles rename stalled for serializing inst
system.cpu.rename.serializingInsts                310                       # count of serializing insts renamed
system.cpu.rename.skidInsts                      3954                       # count of insts added to the skid buffer
system.cpu.rename.tempSerializingInsts             70                       # count of temporary serializing insts renamed
system.cpu.rename.vec_rename_lookups             1112                       # Number of vector rename lookups
system.cpu.rob.rob_reads                        96209                       # The number of ROB reads
system.cpu.rob.rob_writes                      105005                       # The number of ROB writes
system.cpu.timesIdled                             643                       # Number of times that the entire CPU went into an idle state and unscheduled itself
system.cpu.vec_regfile_reads                      657                       # number of vector regfile reads
system.cpu.vec_regfile_writes                     155                       # number of vector regfile writes
system.cpu.workload.numSyscalls                    26                       # Number of system calls
system.membus.snoop_filter.hit_multi_requests            0                       # Number of requests hitting in the snoop filter with multiple (>1) holders of the requested data.
system.membus.snoop_filter.hit_multi_snoops            0                       # Number of snoops hitting in the snoop filter with multiple (>1) holders of the requested data.
system.membus.snoop_filter.hit_single_requests            0                       # Number of requests hitting in the snoop filter with a single holder of the requested data.
system.membus.snoop_filter.hit_single_snoops            0                       # Number of snoops hitting in the snoop filter with a single holder of the requested data.
system.membus.snoop_filter.tot_requests          1342                       # Total number of requests made to the snoop filter.
system.membus.snoop_filter.tot_snoops               0                       # Total number of snoops made to the snoop filter.
system.tol2bus.snoop_filter.hit_multi_requests            0                       # Number of requests hitting in the snoop filter with multiple (>1) holders of the requested data.
system.tol2bus.snoop_filter.hit_multi_snoops            0                       # Number of snoops hitting in the snoop filter with multiple (>1) holders of the requested data.
system.tol2bus.snoop_filter.hit_single_requests          200                       # Number of requests hitting in the snoop filter with a single holder of the requested data.
system.tol2bus.snoop_filter.hit_single_snoops            0                       # Number of snoops hitting in the snoop filter with a single holder of the requested data.
system.tol2bus.snoop_filter.tot_requests         1579                       # Total number of requests made to the snoop filter.
system.tol2bus.snoop_filter.tot_snoops              0                       # Total number of snoops made to the snoop filter.
system.membus.trans_dist::ReadResp               1035                       # Transaction distribution
system.membus.trans_dist::ReadExReq               244                       # Transaction distribution
system.membus.trans_dist::ReadExResp              244                       # Transaction distribution
system.membus.trans_dist::ReadSharedReq          1035                       # Transaction distribution
system.membus.trans_dist::InvalidateReq            63                       # Transaction distribution
system.membus.pkt_count_system.l2.mem_side::system.mem_ctrls.port         2621                       # Packet count per connected master and slave (bytes)
system.membus.pkt_count::total                   2621                       # Packet count per connected master and slave (bytes)
system.membus.pkt_size_system.l2.mem_side::system.mem_ctrls.port        81856                       # Cumulative packet size per connected master and slave (bytes)
system.membus.pkt_size::total                   81856                       # Cumulative packet size per connected master and slave (bytes)
system.membus.snoops                                0                       # Total snoops (count)
system.membus.snoopTraffic                          0                       # Total snoop traffic (bytes)
system.membus.snoop_fanout::samples              1342                       # Request fanout histogram
system.membus.snoop_fanout::mean                    0                       # Request fanout histogram
system.membus.snoop_fanout::stdev                   0                       # Request fanout histogram
system.membus.snoop_fanout::underflows              0      0.00%      0.00% # Request fanout histogram
system.membus.snoop_fanout::0                    1342    100.00%    100.00% # Request fanout histogram
system.membus.snoop_fanout::1                       0      0.00%    100.00% # Request fanout histogram
system.membus.snoop_fanout::overflows               0      0.00%    100.00% # Request fanout histogram
system.membus.snoop_fanout::min_value               0                       # Request fanout histogram
system.membus.snoop_fanout::max_value               0                       # Request fanout histogram
system.membus.snoop_fanout::total                1342                       # Request fanout histogram
system.membus.reqLayer0.occupancy             1634500                       # Layer occupancy (ticks)
system.membus.reqLayer0.utilization               2.6                       # Layer utilization (%)
system.membus.respLayer1.occupancy            6782000                       # Layer occupancy (ticks)
system.membus.respLayer1.utilization             11.0                       # Layer utilization (%)
system.membus.power_state.pwrStateResidencyTicks::UNDEFINED     61863500                       # Cumulative time (in ticks) in various power states
system.tol2bus.trans_dist::ReadResp              1072                       # Transaction distribution
system.tol2bus.trans_dist::WritebackDirty           18                       # Transaction distribution
system.tol2bus.trans_dist::WritebackClean          172                       # Transaction distribution
system.tol2bus.trans_dist::CleanEvict               9                       # Transaction distribution
system.tol2bus.trans_dist::ReadExReq              244                       # Transaction distribution
system.tol2bus.trans_dist::ReadExResp             244                       # Transaction distribution
system.tol2bus.trans_dist::ReadCleanReq           887                       # Transaction distribution
system.tol2bus.trans_dist::ReadSharedReq          186                       # Transaction distribution
system.tol2bus.trans_dist::InvalidateReq           63                       # Transaction distribution
system.tol2bus.trans_dist::InvalidateResp           63                       # Transaction distribution
system.tol2bus.pkt_count_system.cpu.icache.mem_side::system.l2.cpu_side         1945                       # Packet count per connected master and slave (bytes)
system.tol2bus.pkt_count_system.cpu.dcache.mem_side::system.l2.cpu_side         1013                       # Packet count per connected master and slave (bytes)
system.tol2bus.pkt_count::total                  2958                       # Packet count per connected master and slave (bytes)
system.tol2bus.pkt_size_system.cpu.icache.mem_side::system.l2.cpu_side        67712                       # Cumulative packet size per connected master and slave (bytes)
system.tol2bus.pkt_size_system.cpu.dcache.mem_side::system.l2.cpu_side        28672                       # Cumulative packet size per connected master and slave (bytes)
system.tol2bus.pkt_size::total                  96384                       # Cumulative packet size per connected master and slave (bytes)
system.tol2bus.snoops                               0                       # Total snoops (count)
system.tol2bus.snoopTraffic                         0                       # Total snoop traffic (bytes)
system.tol2bus.snoop_fanout::samples             1380                       # Request fanout histogram
system.tol2bus.snoop_fanout::mean            0.000725                       # Request fanout histogram
system.tol2bus.snoop_fanout::stdev           0.026919                       # Request fanout histogram
system.tol2bus.snoop_fanout::underflows             0      0.00%      0.00% # Request fanout histogram
system.tol2bus.snoop_fanout::0                   1379     99.93%     99.93% # Request fanout histogram
system.tol2bus.snoop_fanout::1                      1      0.07%    100.00% # Request fanout histogram
system.tol2bus.snoop_fanout::2                      0      0.00%    100.00% # Request fanout histogram
system.tol2bus.snoop_fanout::overflows              0      0.00%    100.00% # Request fanout histogram
system.tol2bus.snoop_fanout::min_value              0                       # Request fanout histogram
system.tol2bus.snoop_fanout::max_value              1                       # Request fanout histogram
system.tol2bus.snoop_fanout::total               1380                       # Request fanout histogram
system.tol2bus.reqLayer0.occupancy             984985                       # Layer occupancy (ticks)
system.tol2bus.reqLayer0.utilization              1.6                       # Layer utilization (%)
system.tol2bus.respLayer1.occupancy            676500                       # Layer occupancy (ticks)
system.tol2bus.respLayer1.utilization             1.1                       # Layer utilization (%)
system.tol2bus.respLayer0.occupancy           1329000                       # Layer occupancy (ticks)
system.tol2bus.respLayer0.utilization             2.1                       # Layer utilization (%)
system.tol2bus.power_state.pwrStateResidencyTicks::UNDEFINED     61863500                       # Cumulative time (in ticks) in various power states
system.voltage_domain.voltage                       1                       # Voltage in Volts
system.clk_domain.clock                          1000                       # Clock period in ticks
system.l2.demand_hits::.cpu.inst                   19                       # number of demand (read+write) hits
system.l2.demand_hits::.cpu.data                    6                       # number of demand (read+write) hits
system.l2.demand_hits::.cpu.icache.prefetcher           12                       # number of demand (read+write) hits
system.l2.demand_hits::total                       37                       # number of demand (read+write) hits
system.l2.overall_hits::.cpu.inst                  19                       # number of overall hits
system.l2.overall_hits::.cpu.data                   6                       # number of overall hits
system.l2.overall_hits::.cpu.icache.prefetcher           12                       # number of overall hits
system.l2.overall_hits::total                      37                       # number of overall hits
system.l2.demand_misses::.cpu.inst                856                       # number of demand (read+write) misses
system.l2.demand_misses::.cpu.data                424                       # number of demand (read+write) misses
system.l2.demand_misses::total                   1280                       # number of demand (read+write) misses
system.l2.overall_misses::.cpu.inst               856                       # number of overall misses
system.l2.overall_misses::.cpu.data               424                       # number of overall misses
system.l2.overall_misses::total                  1280                       # number of overall misses
system.l2.demand_miss_latency::.cpu.inst     68059500                       # number of demand (read+write) miss cycles
system.l2.demand_miss_latency::.cpu.data     35890000                       # number of demand (read+write) miss cycles
system.l2.demand_miss_latency::total        103949500                       # number of demand (read+write) miss cycles
system.l2.overall_miss_latency::.cpu.inst     68059500                       # number of overall miss cycles
system.l2.overall_miss_latency::.cpu.data     35890000                       # number of overall miss cycles
system.l2.overall_miss_latency::total       103949500                       # number of overall miss cycles
system.l2.demand_accesses::.cpu.inst              875                       # number of demand (read+write) accesses
system.l2.demand_accesses::.cpu.data              430                       # number of demand (read+write) accesses
system.l2.demand_accesses::.cpu.icache.prefetcher           12                       # number of demand (read+write) accesses
system.l2.demand_accesses::total                 1317                       # number of demand (read+write) accesses
system.l2.overall_accesses::.cpu.inst             875                       # number of overall (read+write) accesses
system.l2.overall_accesses::.cpu.data             430                       # number of overall (read+write) accesses
system.l2.overall_accesses::.cpu.icache.prefetcher           12                       # number of overall (read+write) accesses
system.l2.overall_accesses::total                1317                       # number of overall (read+write) accesses
system.l2.demand_miss_rate::.cpu.inst        0.978286                       # miss rate for demand accesses
system.l2.demand_miss_rate::.cpu.data        0.986047                       # miss rate for demand accesses
system.l2.demand_miss_rate::total            0.971906                       # miss rate for demand accesses
system.l2.overall_miss_rate::.cpu.inst       0.978286                       # miss rate for overall accesses
system.l2.overall_miss_rate::.cpu.data       0.986047                       # miss rate for overall accesses
system.l2.overall_miss_rate::total           0.971906                       # miss rate for overall accesses
system.l2.demand_avg_miss_latency::.cpu.inst 79508.761682                       # average overall miss latency
system.l2.demand_avg_miss_latency::.cpu.data 84646.226415                       # average overall miss latency
system.l2.demand_avg_miss_latency::total 81210.546875                       # average overall miss latency
system.l2.overall_avg_miss_latency::.cpu.inst 79508.761682                       # average overall miss latency
system.l2.overall_avg_miss_latency::.cpu.data 84646.226415                       # average overall miss latency
system.l2.overall_avg_miss_latency::total 81210.546875                       # average overall miss latency
system.l2.blocked_cycles::no_mshrs                  0                       # number of cycles access was blocked
system.l2.blocked_cycles::no_targets                0                       # number of cycles access was blocked
system.l2.blocked::no_mshrs                         0                       # number of cycles access was blocked
system.l2.blocked::no_targets                       0                       # number of cycles access was blocked
system.l2.avg_blocked_cycles::no_mshrs            nan                       # average number of cycles each access was blocked
system.l2.avg_blocked_cycles::no_targets          nan                       # average number of cycles each access was blocked
system.l2.demand_mshr_misses::.cpu.inst           856                       # number of demand (read+write) MSHR misses
system.l2.demand_mshr_misses::.cpu.data           424                       # number of demand (read+write) MSHR misses
system.l2.demand_mshr_misses::total              1280                       # number of demand (read+write) MSHR misses
system.l2.overall_mshr_misses::.cpu.inst          856                       # number of overall MSHR misses
system.l2.overall_mshr_misses::.cpu.data          424                       # number of overall MSHR misses
system.l2.overall_mshr_misses::total             1280                       # number of overall MSHR misses
system.l2.demand_mshr_miss_latency::.cpu.inst     59509500                       # number of demand (read+write) MSHR miss cycles
system.l2.demand_mshr_miss_latency::.cpu.data     31649501                       # number of demand (read+write) MSHR miss cycles
system.l2.demand_mshr_miss_latency::total     91159001                       # number of demand (read+write) MSHR miss cycles
system.l2.overall_mshr_miss_latency::.cpu.inst     59509500                       # number of overall MSHR miss cycles
system.l2.overall_mshr_miss_latency::.cpu.data     31649501                       # number of overall MSHR miss cycles
system.l2.overall_mshr_miss_latency::total     91159001                       # number of overall MSHR miss cycles
system.l2.demand_mshr_miss_rate::.cpu.inst     0.978286                       # mshr miss rate for demand accesses
system.l2.demand_mshr_miss_rate::.cpu.data     0.986047                       # mshr miss rate for demand accesses
system.l2.demand_mshr_miss_rate::total       0.971906                       # mshr miss rate for demand accesses
system.l2.overall_mshr_miss_rate::.cpu.inst     0.978286                       # mshr miss rate for overall accesses
system.l2.overall_mshr_miss_rate::.cpu.data     0.986047                       # mshr miss rate for overall accesses
system.l2.overall_mshr_miss_rate::total      0.971906                       # mshr miss rate for overall accesses
system.l2.demand_avg_mshr_miss_latency::.cpu.inst 69520.443925                       # average overall mshr miss latency
system.l2.demand_avg_mshr_miss_latency::.cpu.data 74645.049528                       # average overall mshr miss latency
system.l2.demand_avg_mshr_miss_latency::total 71217.969531                       # average overall mshr miss latency
system.l2.overall_avg_mshr_miss_latency::.cpu.inst 69520.443925                       # average overall mshr miss latency
system.l2.overall_avg_mshr_miss_latency::.cpu.data 74645.049528                       # average overall mshr miss latency
system.l2.overall_avg_mshr_miss_latency::total 71217.969531                       # average overall mshr miss latency
system.l2.replacements                              0                       # number of replacements
system.l2.WritebackDirty_hits::.writebacks           18                       # number of WritebackDirty hits
system.l2.WritebackDirty_hits::total               18                       # number of WritebackDirty hits
system.l2.WritebackDirty_accesses::.writebacks           18                       # number of WritebackDirty accesses(hits+misses)
system.l2.WritebackDirty_accesses::total           18                       # number of WritebackDirty accesses(hits+misses)
system.l2.WritebackClean_hits::.writebacks          172                       # number of WritebackClean hits
system.l2.WritebackClean_hits::total              172                       # number of WritebackClean hits
system.l2.WritebackClean_accesses::.writebacks          172                       # number of WritebackClean accesses(hits+misses)
system.l2.WritebackClean_accesses::total          172                       # number of WritebackClean accesses(hits+misses)
system.l2.ReadExReq_misses::.cpu.data             244                       # number of ReadExReq misses
system.l2.ReadExReq_misses::total                 244                       # number of ReadExReq misses
system.l2.ReadExReq_miss_latency::.cpu.data     19836000                       # number of ReadExReq miss cycles
system.l2.ReadExReq_miss_latency::total      19836000                       # number of ReadExReq miss cycles
system.l2.ReadExReq_accesses::.cpu.data           244                       # number of ReadExReq accesses(hits+misses)
system.l2.ReadExReq_accesses::total               244                       # number of ReadExReq accesses(hits+misses)
system.l2.ReadExReq_miss_rate::.cpu.data            1                       # miss rate for ReadExReq accesses
system.l2.ReadExReq_miss_rate::total                1                       # miss rate for ReadExReq accesses
system.l2.ReadExReq_avg_miss_latency::.cpu.data 81295.081967                       # average ReadExReq miss latency
system.l2.ReadExReq_avg_miss_latency::total 81295.081967                       # average ReadExReq miss latency
system.l2.ReadExReq_mshr_misses::.cpu.data          244                       # number of ReadExReq MSHR misses
system.l2.ReadExReq_mshr_misses::total            244                       # number of ReadExReq MSHR misses
system.l2.ReadExReq_mshr_miss_latency::.cpu.data     17395501                       # number of ReadExReq MSHR miss cycles
system.l2.ReadExReq_mshr_miss_latency::total     17395501                       # number of ReadExReq MSHR miss cycles
system.l2.ReadExReq_mshr_miss_rate::.cpu.data            1                       # mshr miss rate for ReadExReq accesses
system.l2.ReadExReq_mshr_miss_rate::total            1                       # mshr miss rate for ReadExReq accesses
system.l2.ReadExReq_avg_mshr_miss_latency::.cpu.data 71293.036885                       # average ReadExReq mshr miss latency
system.l2.ReadExReq_avg_mshr_miss_latency::total 71293.036885                       # average ReadExReq mshr miss latency
system.l2.ReadCleanReq_hits::.cpu.inst             19                       # number of ReadCleanReq hits
system.l2.ReadCleanReq_hits::.cpu.icache.prefetcher           12                       # number of ReadCleanReq hits
system.l2.ReadCleanReq_hits::total                 31                       # number of ReadCleanReq hits
system.l2.ReadCleanReq_misses::.cpu.inst          856                       # number of ReadCleanReq misses
system.l2.ReadCleanReq_misses::total              856                       # number of ReadCleanReq misses
system.l2.ReadCleanReq_miss_latency::.cpu.inst     68059500                       # number of ReadCleanReq miss cycles
system.l2.ReadCleanReq_miss_latency::total     68059500                       # number of ReadCleanReq miss cycles
system.l2.ReadCleanReq_accesses::.cpu.inst          875                       # number of ReadCleanReq accesses(hits+misses)
system.l2.ReadCleanReq_accesses::.cpu.icache.prefetcher           12                       # number of ReadCleanReq accesses(hits+misses)
system.l2.ReadCleanReq_accesses::total            887                       # number of ReadCleanReq accesses(hits+misses)
[...]
system.cpu.dcache.overall_misses::total          2409                       # number of overall misses
system.cpu.dcache.demand_miss_latency::.cpu.data    154252424                       # number of demand (read+write) miss cycles
system.cpu.dcache.demand_miss_latency::total    154252424                       # number of demand (read+write) miss cycles
system.cpu.dcache.overall_miss_latency::.cpu.data    154252424                       # number of overall miss cycles
system.cpu.dcache.overall_miss_latency::total    154252424                       # number of overall miss cycles
system.cpu.dcache.demand_accesses::.cpu.data        12676                       # number of demand (read+write) accesses
system.cpu.dcache.demand_accesses::total        12676                       # number of demand (read+write) accesses
system.cpu.dcache.overall_accesses::.cpu.data        12695                       # number of overall (read+write) accesses
system.cpu.dcache.overall_accesses::total        12695                       # number of overall (read+write) accesses
system.cpu.dcache.demand_miss_rate::.cpu.data     0.189729                       # miss rate for demand accesses
system.cpu.dcache.demand_miss_rate::total     0.189729                       # miss rate for demand accesses
system.cpu.dcache.overall_miss_rate::.cpu.data     0.189760                       # miss rate for overall accesses
system.cpu.dcache.overall_miss_rate::total     0.189760                       # miss rate for overall accesses
system.cpu.dcache.demand_avg_miss_latency::.cpu.data 64138.222037                       # average overall miss latency
system.cpu.dcache.demand_avg_miss_latency::total 64138.222037                       # average overall miss latency
system.cpu.dcache.overall_avg_miss_latency::.cpu.data 64031.724367                       # average overall miss latency
system.cpu.dcache.overall_avg_miss_latency::total 64031.724367                       # average overall miss latency
system.cpu.dcache.blocked_cycles::no_mshrs         4026                       # number of cycles access was blocked
system.cpu.dcache.blocked_cycles::no_targets            0                       # number of cycles access was blocked
system.cpu.dcache.blocked::no_mshrs               115                       # number of cycles access was blocked
system.cpu.dcache.blocked::no_targets               0                       # number of cycles access was blocked
system.cpu.dcache.avg_blocked_cycles::no_mshrs    35.008696                       # average number of cycles each access was blocked
system.cpu.dcache.avg_blocked_cycles::no_targets          nan                       # average number of cycles each access was blocked
system.cpu.dcache.writebacks::.writebacks           18                       # number of writebacks
system.cpu.dcache.writebacks::total                18                       # number of writebacks
system.cpu.dcache.demand_mshr_hits::.cpu.data         1917                       # number of demand (read+write) MSHR hits
system.cpu.dcache.demand_mshr_hits::total         1917                       # number of demand (read+write) MSHR hits
system.cpu.dcache.overall_mshr_hits::.cpu.data         1917                       # number of overall MSHR hits
system.cpu.dcache.overall_mshr_hits::total         1917                       # number of overall MSHR hits
system.cpu.dcache.demand_mshr_misses::.cpu.data          488                       # number of demand (read+write) MSHR misses
system.cpu.dcache.demand_mshr_misses::total          488                       # number of demand (read+write) MSHR misses
system.cpu.dcache.overall_mshr_misses::.cpu.data          492                       # number of overall MSHR misses
system.cpu.dcache.overall_mshr_misses::total          492                       # number of overall MSHR misses
system.cpu.dcache.demand_mshr_miss_latency::.cpu.data     38108957                       # number of demand (read+write) MSHR miss cycles
system.cpu.dcache.demand_mshr_miss_latency::total     38108957                       # number of demand (read+write) MSHR miss cycles
system.cpu.dcache.overall_mshr_miss_latency::.cpu.data     38467457                       # number of overall MSHR miss cycles
system.cpu.dcache.overall_mshr_miss_latency::total     38467457                       # number of overall MSHR miss cycles
system.cpu.dcache.demand_mshr_miss_rate::.cpu.data     0.038498                       # mshr miss rate for demand accesses
system.cpu.dcache.demand_mshr_miss_rate::total     0.038498                       # mshr miss rate for demand accesses
system.cpu.dcache.overall_mshr_miss_rate::.cpu.data     0.038755                       # mshr miss rate for overall accesses
system.cpu.dcache.overall_mshr_miss_rate::total     0.038755                       # mshr miss rate for overall accesses
system.cpu.dcache.demand_avg_mshr_miss_latency::.cpu.data 78092.125000                       # average overall mshr miss latency
system.cpu.dcache.demand_avg_mshr_miss_latency::total 78092.125000                       # average overall mshr miss latency
system.cpu.dcache.overall_avg_mshr_miss_latency::.cpu.data 78185.888211                       # average overall mshr miss latency
system.cpu.dcache.overall_avg_mshr_miss_latency::total 78185.888211                       # average overall mshr miss latency
system.cpu.dcache.replacements                     27                       # number of replacements
system.cpu.dcache.ReadReq_hits::.cpu.data         5690                       # number of ReadReq hits
system.cpu.dcache.ReadReq_hits::total            5690                       # number of ReadReq hits
system.cpu.dcache.ReadReq_misses::.cpu.data          442                       # number of ReadReq misses
system.cpu.dcache.ReadReq_misses::total           442                       # number of ReadReq misses
system.cpu.dcache.ReadReq_miss_latency::.cpu.data     32149500                       # number of ReadReq miss cycles
system.cpu.dcache.ReadReq_miss_latency::total     32149500                       # number of ReadReq miss cycles
system.cpu.dcache.ReadReq_accesses::.cpu.data         6132                       # number of ReadReq accesses(hits+misses)
system.cpu.dcache.ReadReq_accesses::total         6132                       # number of ReadReq accesses(hits+misses)
system.cpu.dcache.ReadReq_miss_rate::.cpu.data     0.072081                       # miss rate for ReadReq accesses
system.cpu.dcache.ReadReq_miss_rate::total     0.072081                       # miss rate for ReadReq accesses
system.cpu.dcache.ReadReq_avg_miss_latency::.cpu.data 72736.425339                       # average ReadReq miss latency
system.cpu.dcache.ReadReq_avg_miss_latency::total 72736.425339                       # average ReadReq miss latency
system.cpu.dcache.ReadReq_mshr_hits::.cpu.data          261                       # number of ReadReq MSHR hits
system.cpu.dcache.ReadReq_mshr_hits::total          261                       # number of ReadReq MSHR hits
system.cpu.dcache.ReadReq_mshr_misses::.cpu.data          181                       # number of ReadReq MSHR misses
system.cpu.dcache.ReadReq_mshr_misses::total          181                       # number of ReadReq MSHR misses
system.cpu.dcache.ReadReq_mshr_miss_latency::.cpu.data     15958000                       # number of ReadReq MSHR miss cycles
system.cpu.dcache.ReadReq_mshr_miss_latency::total     15958000                       # number of ReadReq MSHR miss cycles
system.cpu.dcache.ReadReq_mshr_miss_rate::.cpu.data     0.029517                       # mshr miss rate for ReadReq accesses
system.cpu.dcache.ReadReq_mshr_miss_rate::total     0.029517                       # mshr miss rate for ReadReq accesses
system.cpu.dcache.ReadReq_avg_mshr_miss_latency::.cpu.data 88165.745856                       # average ReadReq mshr miss latency
system.cpu.dcache.ReadReq_avg_mshr_miss_latency::total 88165.745856                       # average ReadReq mshr miss latency
system.cpu.dcache.WriteReq_hits::.cpu.data         4581                       # number of WriteReq hits
system.cpu.dcache.WriteReq_hits::total           4581                       # number of WriteReq hits
system.cpu.dcache.WriteReq_misses::.cpu.data         1903                       # number of WriteReq misses
system.cpu.dcache.WriteReq_misses::total         1903                       # number of WriteReq misses
system.cpu.dcache.WriteReq_miss_latency::.cpu.data    120194459                       # number of WriteReq miss cycles
system.cpu.dcache.WriteReq_miss_latency::total    120194459                       # number of WriteReq miss cycles
system.cpu.dcache.WriteReq_accesses::.cpu.data         6484                       # number of WriteReq accesses(hits+misses)
system.cpu.dcache.WriteReq_accesses::total         6484                       # number of WriteReq accesses(hits+misses)
system.cpu.dcache.WriteReq_miss_rate::.cpu.data     0.293492                       # miss rate for WriteReq accesses
system.cpu.dcache.WriteReq_miss_rate::total     0.293492                       # miss rate for WriteReq accesses
system.cpu.dcache.WriteReq_avg_miss_latency::.cpu.data 63160.514451                       # average WriteReq miss latency
system.cpu.dcache.WriteReq_avg_miss_latency::total 63160.514451                       # average WriteReq miss latency
system.cpu.dcache.WriteReq_mshr_hits::.cpu.data         1656                       # number of WriteReq MSHR hits
system.cpu.dcache.WriteReq_mshr_hits::total         1656                       # number of WriteReq MSHR hits
system.cpu.dcache.WriteReq_mshr_misses::.cpu.data          247                       # number of WriteReq MSHR misses
system.cpu.dcache.WriteReq_mshr_misses::total          247                       # number of WriteReq MSHR misses
system.cpu.dcache.WriteReq_mshr_miss_latency::.cpu.data     20302492                       # number of WriteReq MSHR miss cycles
system.cpu.dcache.WriteReq_mshr_miss_latency::total     20302492                       # number of WriteReq MSHR miss cycles
system.cpu.dcache.WriteReq_mshr_miss_rate::.cpu.data     0.038094                       # mshr miss rate for WriteReq accesses
system.cpu.dcache.WriteReq_mshr_miss_rate::total     0.038094                       # mshr miss rate for WriteReq accesses
system.cpu.dcache.WriteReq_avg_mshr_miss_latency::.cpu.data 82196.323887                       # average WriteReq mshr miss latency
system.cpu.dcache.WriteReq_avg_mshr_miss_latency::total 82196.323887                       # average WriteReq mshr miss latency
system.cpu.dcache.SoftPFReq_hits::.cpu.data           15                       # number of SoftPFReq hits
system.cpu.dcache.SoftPFReq_hits::total            15                       # number of SoftPFReq hits
system.cpu.dcache.SoftPFReq_misses::.cpu.data            4                       # number of SoftPFReq misses
system.cpu.dcache.SoftPFReq_misses::total            4                       # number of SoftPFReq misses
system.cpu.dcache.SoftPFReq_accesses::.cpu.data           19                       # number of SoftPFReq accesses(hits+misses)
system.cpu.dcache.SoftPFReq_accesses::total           19                       # number of SoftPFReq accesses(hits+misses)
system.cpu.dcache.SoftPFReq_miss_rate::.cpu.data     0.210526                       # miss rate for SoftPFReq accesses
system.cpu.dcache.SoftPFReq_miss_rate::total     0.210526                       # miss rate for SoftPFReq accesses
system.cpu.dcache.SoftPFReq_mshr_misses::.cpu.data            4                       # number of SoftPFReq MSHR misses
system.cpu.dcache.SoftPFReq_mshr_misses::total            4                       # number of SoftPFReq MSHR misses
system.cpu.dcache.SoftPFReq_mshr_miss_latency::.cpu.data       358500                       # number of SoftPFReq MSHR miss cycles
system.cpu.dcache.SoftPFReq_mshr_miss_latency::total       358500                       # number of SoftPFReq MSHR miss cycles
system.cpu.dcache.SoftPFReq_mshr_miss_rate::.cpu.data     0.210526                       # mshr miss rate for SoftPFReq accesses
system.cpu.dcache.SoftPFReq_mshr_miss_rate::total     0.210526                       # mshr miss rate for SoftPFReq accesses
system.cpu.dcache.SoftPFReq_avg_mshr_miss_latency::.cpu.data        89625                       # average SoftPFReq mshr miss latency
system.cpu.dcache.SoftPFReq_avg_mshr_miss_latency::total        89625                       # average SoftPFReq mshr miss latency
system.cpu.dcache.WriteLineReq_misses::.cpu.data           60                       # number of WriteLineReq misses
system.cpu.dcache.WriteLineReq_misses::total           60                       # number of WriteLineReq misses
system.cpu.dcache.WriteLineReq_miss_latency::.cpu.data      1908465                       # number of WriteLineReq miss cycles
system.cpu.dcache.WriteLineReq_miss_latency::total      1908465                       # number of WriteLineReq miss cycles
system.cpu.dcache.WriteLineReq_accesses::.cpu.data           60                       # number of WriteLineReq accesses(hits+misses)
system.cpu.dcache.WriteLineReq_accesses::total           60                       # number of WriteLineReq accesses(hits+misses)
system.cpu.dcache.WriteLineReq_miss_rate::.cpu.data            1                       # miss rate for WriteLineReq accesses
system.cpu.dcache.WriteLineReq_miss_rate::total            1                       # miss rate for WriteLineReq accesses
system.cpu.dcache.WriteLineReq_avg_miss_latency::.cpu.data 31807.750000                       # average WriteLineReq miss latency
system.cpu.dcache.WriteLineReq_avg_miss_latency::total 31807.750000                       # average WriteLineReq miss latency
system.cpu.dcache.WriteLineReq_mshr_misses::.cpu.data           60                       # number of WriteLineReq MSHR misses
system.cpu.dcache.WriteLineReq_mshr_misses::total           60                       # number of WriteLineReq MSHR misses
system.cpu.dcache.WriteLineReq_mshr_miss_latency::.cpu.data      1848465                       # number of WriteLineReq MSHR miss cycles
system.cpu.dcache.WriteLineReq_mshr_miss_latency::total      1848465                       # number of WriteLineReq MSHR miss cycles
system.cpu.dcache.WriteLineReq_mshr_miss_rate::.cpu.data            1                       # mshr miss rate for WriteLineReq accesses
system.cpu.dcache.WriteLineReq_mshr_miss_rate::total            1                       # mshr miss rate for WriteLineReq accesses
system.cpu.dcache.WriteLineReq_avg_mshr_miss_latency::.cpu.data 30807.750000                       # average WriteLineReq mshr miss latency
system.cpu.dcache.WriteLineReq_avg_mshr_miss_latency::total 30807.750000                       # average WriteLineReq mshr miss latency
system.cpu.dcache.LoadLockedReq_hits::.cpu.data           28                       # number of LoadLockedReq hits
system.cpu.dcache.LoadLockedReq_hits::total           28                       # number of LoadLockedReq hits
system.cpu.dcache.LoadLockedReq_misses::.cpu.data            1                       # number of LoadLockedReq misses
system.cpu.dcache.LoadLockedReq_misses::total            1                       # number of LoadLockedReq misses
system.cpu.dcache.LoadLockedReq_miss_latency::.cpu.data        86500                       # number of LoadLockedReq miss cycles
system.cpu.dcache.LoadLockedReq_miss_latency::total        86500                       # number of LoadLockedReq miss cycles
system.cpu.dcache.LoadLockedReq_accesses::.cpu.data           29                       # number of LoadLockedReq accesses(hits+misses)
system.cpu.dcache.LoadLockedReq_accesses::total           29                       # number of LoadLockedReq accesses(hits+misses)
system.cpu.dcache.LoadLockedReq_miss_rate::.cpu.data     0.034483                       # miss rate for LoadLockedReq accesses
system.cpu.dcache.LoadLockedReq_miss_rate::total     0.034483                       # miss rate for LoadLockedReq accesses
system.cpu.dcache.LoadLockedReq_avg_miss_latency::.cpu.data        86500                       # average LoadLockedReq miss latency
system.cpu.dcache.LoadLockedReq_avg_miss_latency::total        86500                       # average LoadLockedReq miss latency
system.cpu.dcache.LoadLockedReq_mshr_misses::.cpu.data            1                       # number of LoadLockedReq MSHR misses
system.cpu.dcache.LoadLockedReq_mshr_misses::total            1                       # number of LoadLockedReq MSHR misses
system.cpu.dcache.LoadLockedReq_mshr_miss_latency::.cpu.data        85500                       # number of LoadLockedReq MSHR miss cycles
system.cpu.dcache.LoadLockedReq_mshr_miss_latency::total        85500                       # number of LoadLockedReq MSHR miss cycles
system.cpu.dcache.LoadLockedReq_mshr_miss_rate::.cpu.data     0.034483                       # mshr miss rate for LoadLockedReq accesses
system.cpu.dcache.LoadLockedReq_mshr_miss_rate::total     0.034483                       # mshr miss rate for LoadLockedReq accesses
system.cpu.dcache.LoadLockedReq_avg_mshr_miss_latency::.cpu.data        85500                       # average LoadLockedReq mshr miss latency
system.cpu.dcache.LoadLockedReq_avg_mshr_miss_latency::total        85500                       # average LoadLockedReq mshr miss latency
system.cpu.dcache.StoreCondReq_hits::.cpu.data           20                       # number of StoreCondReq hits
system.cpu.dcache.StoreCondReq_hits::total           20                       # number of StoreCondReq hits
system.cpu.dcache.StoreCondReq_accesses::.cpu.data           20                       # number of StoreCondReq accesses(hits+misses)
system.cpu.dcache.StoreCondReq_accesses::total           20                       # number of StoreCondReq accesses(hits+misses)
system.cpu.dcache.power_state.pwrStateResidencyTicks::UNDEFINED     61863500                       # Cumulative time (in ticks) in various power states
system.cpu.dcache.tags.tagsinuse           289.661645                       # Cycle average of tags in use
system.cpu.dcache.tags.total_refs               10827                       # Total number of references to valid blocks.
system.cpu.dcache.tags.sampled_refs               493                       # Sample count of references to valid blocks.
system.cpu.dcache.tags.avg_refs             21.961460                       # Average number of references to valid blocks.
system.cpu.dcache.tags.warmup_cycle            176500                       # Cycle when the warmup percentage was hit.
system.cpu.dcache.tags.occ_blocks::.cpu.data   289.661645                       # Average occupied blocks per requestor
system.cpu.dcache.tags.occ_percent::.cpu.data     0.282873                       # Average percentage of cache occupancy
system.cpu.dcache.tags.occ_percent::total     0.282873                       # Average percentage of cache occupancy
system.cpu.dcache.tags.occ_task_id_blocks::1024          466                       # Occupied blocks per task id
system.cpu.dcache.tags.age_task_id_blocks_1024::0           26                       # Occupied blocks per task id
system.cpu.dcache.tags.age_task_id_blocks_1024::1          440                       # Occupied blocks per task id
system.cpu.dcache.tags.occ_task_id_percent::1024     0.455078                       # Percentage of cache occupancy per task id
system.cpu.dcache.tags.tag_accesses             25981                       # Number of tag accesses
system.cpu.dcache.tags.data_accesses            25981                       # Number of data accesses
system.cpu.dcache.tags.power_state.pwrStateResidencyTicks::UNDEFINED     61863500                       # Cumulative time (in ticks) in various power states
system.cpu.power_state.pwrStateResidencyTicks::ON     61863500                       # Cumulative time (in ticks) in various power states

---------- End Simulation Statistics   ----------
