
---------- Begin Simulation Statistics ----------
final_tick                                 3809148500                       # Number of ticks from beginning of simulation (restored from checkpoints and never reset)
host_inst_rate                                 208432                       # Simulator instruction rate (inst/s)
host_mem_usage                                 865360                       # Number of bytes of host memory used
host_op_rate                                   247916                       # Simulator op (including micro ops) rate (op/s)
host_seconds                                    47.98                       # Real time elapsed on the host
host_tick_rate                               79394412                       # Simulator tick rate (ticks/s)
sim_freq                                 1000000000000                       # Frequency of simulated ticks
sim_insts                                    10000000                       # Number of instructions simulated
sim_ops                                      11894415                       # Number of ops (including micro ops) simulated
sim_seconds                                  0.003809                       # Number of seconds simulated
sim_ticks                                  3809148500                       # Number of ticks simulated
system.cpu.branchPred.BTBCorrect                    0                       # Number of correct BTB predictions (this stat may not work properly.
system.cpu.branchPred.BTBHitPct             99.633981                       # BTB Hit Percentage
system.cpu.branchPred.BTBHits                  879239                       # Number of BTB hits
system.cpu.branchPred.BTBLookups               882469                       # Number of BTB lookups
system.cpu.branchPred.RASInCorrect                  0                       # Number of incorrect RAS predictions.
system.cpu.branchPred.condIncorrect             33444                       # Number of conditional branches incorrect
system.cpu.branchPred.condPredicted           1373509                       # Number of conditional branches predicted
system.cpu.branchPred.indirectHits               2243                       # Number of indirect target hits.
system.cpu.branchPred.indirectLookups            3040                       # Number of indirect predictor lookups.
system.cpu.branchPred.indirectMisses              797                       # Number of indirect misses.
system.cpu.branchPred.lookups                 1817203                       # Number of BP lookups
system.cpu.branchPred.usedRAS                  167324                       # Number of times the RAS was used to get a target.
system.cpu.branchPredindirectMispredicted          195                       # Number of mispredicted indirect branches.
system.cpu.cc_regfile_reads                   3071322                       # number of cc regfile reads
system.cpu.cc_regfile_writes                  2966667                       # number of cc regfile writes
system.cpu.commit.amos                              0                       # Number of atomic instructions committed
system.cpu.commit.branchMispredicts             32676                       # The number of times a branch was mispredicted
system.cpu.commit.branches                    1651947                       # Number of branches committed
system.cpu.commit.bw_lim_events                772240                       # number cycles where commit BW limit reached
system.cpu.commit.commitNonSpecStalls            1957                       # The number of times commit has been forced to stall to communicate backwards
system.cpu.commit.commitSquashedInsts          667734                       # The number of squashed insts skipped by commit
system.cpu.commit.committedInsts             10016151                       # Number of instructions committed
system.cpu.commit.committedOps               11910566                       # Number of ops (including micro ops) committed
system.cpu.commit.committed_per_cycle::samples      7307920                       # Number of insts commited each cycle
system.cpu.commit.committed_per_cycle::mean     1.629816                       # Number of insts commited each cycle
system.cpu.commit.committed_per_cycle::stdev     2.623321                       # Number of insts commited each cycle
system.cpu.commit.committed_per_cycle::underflows            0      0.00%      0.00% # Number of insts commited each cycle
system.cpu.commit.committed_per_cycle::0      4198169     57.45%     57.45% # Number of insts commited each cycle
system.cpu.commit.committed_per_cycle::1       949217     12.99%     70.44% # Number of insts commited each cycle
system.cpu.commit.committed_per_cycle::2       466065      6.38%     76.81% # Number of insts commited each cycle
system.cpu.commit.committed_per_cycle::3       373186      5.11%     81.92% # Number of insts commited each cycle
system.cpu.commit.committed_per_cycle::4       224591      3.07%     84.99% # Number of insts commited each cycle
system.cpu.commit.committed_per_cycle::5       153947      2.11%     87.10% # Number of insts commited each cycle
system.cpu.commit.committed_per_cycle::6       129893      1.78%     88.88% # Number of insts commited each cycle
system.cpu.commit.committed_per_cycle::7        40612      0.56%     89.43% # Number of insts commited each cycle
system.cpu.commit.committed_per_cycle::8       772240     10.57%    100.00% # Number of insts commited each cycle
system.cpu.commit.committed_per_cycle::overflows            0      0.00%    100.00% # Number of insts commited each cycle
system.cpu.commit.committed_per_cycle::min_value            0                       # Number of insts commited each cycle
system.cpu.commit.committed_per_cycle::max_value            8                       # Number of insts commited each cycle
system.cpu.commit.committed_per_cycle::total      7307920                       # Number of insts commited each cycle
system.cpu.commit.fp_insts                          0                       # Number of committed floating point instructions.
system.cpu.commit.function_calls               146386                       # Number of function calls committed.
system.cpu.commit.int_insts                   9927237                       # Number of committed integer instructions.
system.cpu.commit.loads                       2000894                       # Number of loads committed
system.cpu.commit.membars                        1922                       # Number of memory barriers committed
system.cpu.commit.op_class_0::No_OpClass         5074      0.04%      0.04% # Class of committed instruction
system.cpu.commit.op_class_0::IntAlu          6631221     55.68%     55.72% # Class of committed instruction
system.cpu.commit.op_class_0::IntMult           53992      0.45%     56.17% # Class of committed instruction
system.cpu.commit.op_class_0::IntDiv               23      0.00%     56.17% # Class of committed instruction
system.cpu.commit.op_class_0::FloatAdd         176152      1.48%     57.65% # Class of committed instruction
system.cpu.commit.op_class_0::FloatCmp          51045      0.43%     58.08% # Class of committed instruction
system.cpu.commit.op_class_0::FloatCvt         201343      1.69%     59.77% # Class of committed instruction
system.cpu.commit.op_class_0::FloatMult        170599      1.43%     61.20% # Class of committed instruction
system.cpu.commit.op_class_0::FloatMultAcc       395486      3.32%     64.52% # Class of committed instruction
system.cpu.commit.op_class_0::FloatDiv          60019      0.50%     65.03% # Class of committed instruction
system.cpu.commit.op_class_0::FloatMisc        247994      2.08%     67.11% # Class of committed instruction
system.cpu.commit.op_class_0::FloatSqrt             0      0.00%     67.11% # Class of committed instruction
system.cpu.commit.op_class_0::SimdAdd            9096      0.08%     67.18% # Class of committed instruction
system.cpu.commit.op_class_0::SimdAddAcc            0      0.00%     67.18% # Class of committed instruction
system.cpu.commit.op_class_0::SimdAlu           11637      0.10%     67.28% # Class of committed instruction
system.cpu.commit.op_class_0::SimdCmp           11420      0.10%     67.38% # Class of committed instruction
system.cpu.commit.op_class_0::SimdCvt             634      0.01%     67.38% # Class of committed instruction
system.cpu.commit.op_class_0::SimdMisc          27829      0.23%     67.62% # Class of committed instruction
system.cpu.commit.op_class_0::SimdMult              0      0.00%     67.62% # Class of committed instruction
system.cpu.commit.op_class_0::SimdMultAcc            0      0.00%     67.62% # Class of committed instruction
system.cpu.commit.op_class_0::SimdShift             0      0.00%     67.62% # Class of committed instruction
system.cpu.commit.op_class_0::SimdShiftAcc            0      0.00%     67.62% # Class of committed instruction
system.cpu.commit.op_class_0::SimdDiv               0      0.00%     67.62% # Class of committed instruction
system.cpu.commit.op_class_0::SimdSqrt              0      0.00%     67.62% # Class of committed instruction
system.cpu.commit.op_class_0::SimdFloatAdd            0      0.00%     67.62% # Class of committed instruction
system.cpu.commit.op_class_0::SimdFloatAlu            0      0.00%     67.62% # Class of committed instruction
system.cpu.commit.op_class_0::SimdFloatCmp            0      0.00%     67.62% # Class of committed instruction
system.cpu.commit.op_class_0::SimdFloatCvt            0      0.00%     67.62% # Class of committed instruction
system.cpu.commit.op_class_0::SimdFloatDiv            0      0.00%     67.62% # Class of committed instruction
system.cpu.commit.op_class_0::SimdFloatMisc            0      0.00%     67.62% # Class of committed instruction
system.cpu.commit.op_class_0::SimdFloatMult            0      0.00%     67.62% # Class of committed instruction
system.cpu.commit.op_class_0::SimdFloatMultAcc            0      0.00%     67.62% # Class of committed instruction
system.cpu.commit.op_class_0::SimdFloatSqrt            0      0.00%     67.62% # Class of committed instruction
system.cpu.commit.op_class_0::SimdReduceAdd            0      0.00%     67.62% # Class of committed instruction
system.cpu.commit.op_class_0::SimdReduceAlu            0      0.00%     67.62% # Class of committed instruction
system.cpu.commit.op_class_0::SimdReduceCmp            0      0.00%     67.62% # Class of committed instruction
system.cpu.commit.op_class_0::SimdFloatReduceAdd            0      0.00%     67.62% # Class of committed instruction
system.cpu.commit.op_class_0::SimdFloatReduceCmp            0      0.00%     67.62% # Class of committed instruction
system.cpu.commit.op_class_0::SimdAes               0      0.00%     67.62% # Class of committed instruction
system.cpu.commit.op_class_0::SimdAesMix            0      0.00%     67.62% # Class of committed instruction
system.cpu.commit.op_class_0::SimdSha1Hash            0      0.00%     67.62% # Class of committed instruction
system.cpu.commit.op_class_0::SimdSha1Hash2            0      0.00%     67.62% # Class of committed instruction
system.cpu.commit.op_class_0::SimdSha256Hash            0      0.00%     67.62% # Class of committed instruction
system.cpu.commit.op_class_0::SimdSha256Hash2            0      0.00%     67.62% # Class of committed instruction
system.cpu.commit.op_class_0::SimdShaSigma2            0      0.00%     67.62% # Class of committed instruction
system.cpu.commit.op_class_0::SimdShaSigma3            0      0.00%     67.62% # Class of committed instruction
system.cpu.commit.op_class_0::SimdPredAlu            0      0.00%     67.62% # Class of committed instruction
system.cpu.commit.op_class_0::MemRead         2000894     16.80%     84.42% # Class of committed instruction
system.cpu.commit.op_class_0::MemWrite        1856108     15.58%    100.00% # Class of committed instruction
system.cpu.commit.op_class_0::FloatMemRead            0      0.00%    100.00% # Class of committed instruction
system.cpu.commit.op_class_0::FloatMemWrite            0      0.00%    100.00% # Class of committed instruction
system.cpu.commit.op_class_0::IprAccess             0      0.00%    100.00% # Class of committed instruction
system.cpu.commit.op_class_0::InstPrefetch            0      0.00%    100.00% # Class of committed instruction
system.cpu.commit.op_class_0::total          11910566                       # Class of committed instruction
system.cpu.commit.refs                        3857002                       # Number of memory references committed
system.cpu.commit.swp_count                         0                       # Number of s/w prefetches committed
system.cpu.commit.vec_insts                   1926437                       # Number of committed Vector instructions.
system.cpu.committedInsts                    10000000                       # Number of Instructions Simulated
system.cpu.committedOps                      11894415                       # Number of Ops (including micro ops) Simulated
system.cpu.cpi                               0.761830                       # CPI: Cycles Per Instruction
system.cpu.cpi_total                         0.761830                       # CPI: Total CPI of All Threads
system.cpu.decode.BlockedCycles               1281789                       # Number of cycles decode is blocked
system.cpu.decode.BranchMispred                   783                       # Number of times decode detected a branch misprediction
system.cpu.decode.BranchResolved               862476                       # Number of times decode resolved a branch
system.cpu.decode.DecodedInsts               12744413                       # Number of instructions handled by decode
system.cpu.decode.IdleCycles                  3814378                       # Number of cycles decode is idle
system.cpu.decode.RunCycles                   2058904                       # Number of cycles decode is running
system.cpu.decode.SquashCycles                  32894                       # Number of cycles decode is squashing
system.cpu.decode.SquashedInsts                  3005                       # Number of squashed instructions handled by decode
system.cpu.decode.UnblockCycles                222201                       # Number of cycles decode is unblocking
system.cpu.dtb.accesses                             0                       # DTB accesses
system.cpu.dtb.align_faults                         0                       # Number of TLB faults due to alignment restrictions
system.cpu.dtb.domain_faults                        0                       # Number of TLB faults due to domain restrictions
system.cpu.dtb.flush_entries                        0                       # Number of entries that have been flushed from TLB
system.cpu.dtb.flush_tlb                            0                       # Number of times complete TLB was flushed
system.cpu.dtb.flush_tlb_asid                       0                       # Number of times TLB was flushed by ASID
system.cpu.dtb.flush_tlb_mva                        0                       # Number of times TLB was flushed by MVA
system.cpu.dtb.flush_tlb_mva_asid                   0                       # Number of times TLB was flushed by MVA & ASID
system.cpu.dtb.hits                                 0                       # DTB hits
system.cpu.dtb.inst_accesses                        0                       # ITB inst accesses
system.cpu.dtb.inst_hits                            0                       # ITB inst hits
system.cpu.dtb.inst_misses                          0                       # ITB inst misses
system.cpu.dtb.misses                               0                       # DTB misses
system.cpu.dtb.perms_faults                         0                       # Number of TLB faults due to permissions restrictions
system.cpu.dtb.prefetch_faults                      0                       # Number of TLB faults due to prefetch
system.cpu.dtb.read_accesses                        0                       # DTB read accesses
system.cpu.dtb.read_hits                            0                       # DTB read hits
system.cpu.dtb.read_misses                          0                       # DTB read misses
system.cpu.dtb.stage2_mmu.stage2_tlb.accesses            0                       # DTB accesses
system.cpu.dtb.stage2_mmu.stage2_tlb.align_faults            0                       # Number of TLB faults due to alignment restrictions
system.cpu.dtb.stage2_mmu.stage2_tlb.domain_faults            0                       # Number of TLB faults due to domain restrictions
system.cpu.dtb.stage2_mmu.stage2_tlb.flush_entries            0                       # Number of entries that have been flushed from TLB
system.cpu.dtb.stage2_mmu.stage2_tlb.flush_tlb            0                       # Number of times complete TLB was flushed
system.cpu.dtb.stage2_mmu.stage2_tlb.flush_tlb_asid            0                       # Number of times TLB was flushed by ASID
system.cpu.dtb.stage2_mmu.stage2_tlb.flush_tlb_mva            0                       # Number of times TLB was flushed by MVA
system.cpu.dtb.stage2_mmu.stage2_tlb.flush_tlb_mva_asid            0                       # Number of times TLB was flushed by MVA & ASID
system.cpu.dtb.stage2_mmu.stage2_tlb.hits            0                       # DTB hits
system.cpu.dtb.stage2_mmu.stage2_tlb.inst_accesses            0                       # ITB inst accesses
system.cpu.dtb.stage2_mmu.stage2_tlb.inst_hits            0                       # ITB inst hits
system.cpu.dtb.stage2_mmu.stage2_tlb.inst_misses            0                       # ITB inst misses
system.cpu.dtb.stage2_mmu.stage2_tlb.misses            0                       # DTB misses
system.cpu.dtb.stage2_mmu.stage2_tlb.perms_faults            0                       # Number of TLB faults due to permissions restrictions
system.cpu.dtb.stage2_mmu.stage2_tlb.prefetch_faults            0                       # Number of TLB faults due to prefetch
system.cpu.dtb.stage2_mmu.stage2_tlb.read_accesses            0                       # DTB read accesses
system.cpu.dtb.stage2_mmu.stage2_tlb.read_hits            0                       # DTB read hits
system.cpu.dtb.stage2_mmu.stage2_tlb.read_misses            0                       # DTB read misses
system.cpu.dtb.stage2_mmu.stage2_tlb.walker.walkRequestOrigin_Requested::Data            0                       # Table walker requests started/completed, data/inst
system.cpu.dtb.stage2_mmu.stage2_tlb.walker.walkRequestOrigin_Requested::Inst            0                       # Table walker requests started/completed, data/inst
system.cpu.dtb.stage2_mmu.stage2_tlb.walker.walkRequestOrigin_Requested::total            0                       # Table walker requests started/completed, data/inst
system.cpu.dtb.stage2_mmu.stage2_tlb.walker.walkRequestOrigin_Completed::Data            0                       # Table walker requests started/completed, data/inst
system.cpu.dtb.stage2_mmu.stage2_tlb.walker.walkRequestOrigin_Completed::Inst            0                       # Table walker requests started/completed, data/inst
system.cpu.dtb.stage2_mmu.stage2_tlb.walker.walkRequestOrigin_Completed::total            0                       # Table walker requests started/completed, data/inst
system.cpu.dtb.stage2_mmu.stage2_tlb.walker.walkRequestOrigin::total            0                       # Table walker requests started/completed, data/inst
system.cpu.dtb.stage2_mmu.stage2_tlb.walker.walks            0                       # Table walker walks requested
system.cpu.dtb.stage2_mmu.stage2_tlb.write_accesses            0                       # DTB write accesses
system.cpu.dtb.stage2_mmu.stage2_tlb.write_hits            0                       # DTB write hits
system.cpu.dtb.stage2_mmu.stage2_tlb.write_misses            0                       # DTB write misses
system.cpu.dtb.walker.walkRequestOrigin_Requested::Data            0                       # Table walker requests started/completed, data/inst
system.cpu.dtb.walker.walkRequestOrigin_Requested::Inst            0                       # Table walker requests started/completed, data/inst
system.cpu.dtb.walker.walkRequestOrigin_Requested::total            0                       # Table walker requests started/completed, data/inst
system.cpu.dtb.walker.walkRequestOrigin_Completed::Data            0                       # Table walker requests started/completed, data/inst
system.cpu.dtb.walker.walkRequestOrigin_Completed::Inst            0                       # Table walker requests started/completed, data/inst
system.cpu.dtb.walker.walkRequestOrigin_Completed::total            0                       # Table walker requests started/completed, data/inst
system.cpu.dtb.walker.walkRequestOrigin::total            0                       # Table walker requests started/completed, data/inst
system.cpu.dtb.walker.walks                         0                       # Table walker walks requested
system.cpu.dtb.write_accesses                       0                       # DTB write accesses
system.cpu.dtb.write_hits                           0                       # DTB write hits
system.cpu.dtb.write_misses                         0                       # DTB write misses
system.cpu.fetch.Branches                     1817203                       # Number of branches that fetch encountered
system.cpu.fetch.CacheLines                   1487699                       # Number of cache lines fetched
system.cpu.fetch.Cycles                       2985413                       # Number of cycles fetch has run and was not squashing or blocked
system.cpu.fetch.IcacheSquashes                 21931                       # Number of outstanding Icache misses that were squashed
system.cpu.fetch.IcacheWaitRetryStallCycles           67                       # Number of stall cycles due to full MSHR
system.cpu.fetch.Insts                       10878919                       # Number of instructions fetch has processed
system.cpu.fetch.MiscStallCycles                    5                       # Number of cycles fetch has spent waiting on interrupts, or bad addresses, or out of MSHRs
system.cpu.fetch.SquashCycles                   67324                       # Number of cycles fetch has spent squashing
system.cpu.fetch.branchRate                  0.238531                       # Number of branch fetches per cycle
system.cpu.fetch.icacheStallCycles            4391019                       # Number of cycles fetch is stalled on an Icache miss
system.cpu.fetch.predictedBranches            1048806                       # Number of branches that fetch has predicted taken
system.cpu.fetch.rate                        1.427998                       # Number of inst fetches per cycle
system.cpu.fetch.rateDist::samples            7410166                       # Number of instructions fetched each cycle (Total)
system.cpu.fetch.rateDist::mean              1.738788                       # Number of instructions fetched each cycle (Total)
system.cpu.fetch.rateDist::stdev             2.899873                       # Number of instructions fetched each cycle (Total)
system.cpu.fetch.rateDist::underflows               0      0.00%      0.00% # Number of instructions fetched each cycle (Total)
system.cpu.fetch.rateDist::0                  4936428     66.62%     66.62% # Number of instructions fetched each cycle (Total)
system.cpu.fetch.rateDist::1                   299980      4.05%     70.67% # Number of instructions fetched each cycle (Total)
system.cpu.fetch.rateDist::2                   269860      3.64%     74.31% # Number of instructions fetched each cycle (Total)
system.cpu.fetch.rateDist::3                   256698      3.46%     77.77% # Number of instructions fetched each cycle (Total)
system.cpu.fetch.rateDist::4                   217125      2.93%     80.70% # Number of instructions fetched each cycle (Total)
system.cpu.fetch.rateDist::5                   207928      2.81%     83.51% # Number of instructions fetched each cycle (Total)
system.cpu.fetch.rateDist::6                   147273      1.99%     85.49% # Number of instructions fetched each cycle (Total)
system.cpu.fetch.rateDist::7                   115857      1.56%     87.06% # Number of instructions fetched each cycle (Total)
system.cpu.fetch.rateDist::8                   959017     12.94%    100.00% # Number of instructions fetched each cycle (Total)
system.cpu.fetch.rateDist::overflows                0      0.00%    100.00% # Number of instructions fetched each cycle (Total)
system.cpu.fetch.rateDist::min_value                0                       # Number of instructions fetched each cycle (Total)
system.cpu.fetch.rateDist::max_value                8                       # Number of instructions fetched each cycle (Total)
system.cpu.fetch.rateDist::total              7410166                       # Number of instructions fetched each cycle (Total)
system.cpu.idleCycles                          208133                       # Total number of cycles that the CPU has spent unscheduled due to idling
system.cpu.iew.branchMispredicts                38244                       # Number of branch mispredicts detected at execute
system.cpu.iew.exec_branches                  1722968                       # Number of branches executed
system.cpu.iew.exec_nop                         18840                       # number of nop insts executed
system.cpu.iew.exec_rate                     1.622650                       # Inst execution rate
system.cpu.iew.exec_refs                      4012016                       # number of memory reference insts executed
system.cpu.iew.exec_stores                    1884699                       # Number of stores executed
system.cpu.iew.exec_swp                             0                       # number of swp insts executed
system.cpu.iew.iewBlockCycles                   79444                       # Number of cycles IEW is blocking
system.cpu.iew.iewDispLoadInsts               2130959                       # Number of dispatched load instructions
system.cpu.iew.iewDispNonSpecInsts               2010                       # Number of dispatched non-speculative instructions
system.cpu.iew.iewDispSquashedInsts              9169                       # Number of squashed instructions skipped by dispatch
system.cpu.iew.iewDispStoreInsts              1901686                       # Number of dispatched store instructions
system.cpu.iew.iewDispatchedInsts            12578703                       # Number of instructions dispatched to IQ
system.cpu.iew.iewExecLoadInsts               2127317                       # Number of load instructions executed
system.cpu.iew.iewExecSquashedInsts             56218                       # Number of squashed instructions skipped in execute
system.cpu.iew.iewExecutedInsts              12361834                       # Number of executed instructions
system.cpu.iew.iewIQFullEvents                    573                       # Number of times the IQ has become full, causing a stall
system.cpu.iew.iewIdleCycles                        0                       # Number of cycles IEW is idle
system.cpu.iew.iewLSQFullEvents                 30344                       # Number of times the LSQ has become full, causing a stall
system.cpu.iew.iewSquashCycles                  32894                       # Number of cycles IEW is squashing
system.cpu.iew.iewUnblockCycles                 31210                       # Number of cycles IEW is unblocking
system.cpu.iew.lsq.thread0.blockedLoads             0                       # Number of blocked loads due to partial load-store forwarding
system.cpu.iew.lsq.thread0.cacheBlocked           662                       # Number of times an access to memory failed due to the cache being blocked
system.cpu.iew.lsq.thread0.forwLoads            25971                       # Number of loads that had data forwarded from stores
system.cpu.iew.lsq.thread0.ignoredResponses            6                       # Number of memory responses ignored because the instruction is squashed
system.cpu.iew.lsq.thread0.invAddrLoads             0                       # Number of loads ignored due to an invalid address
system.cpu.iew.lsq.thread0.invAddrSwpfs             0                       # Number of software prefetches ignored due to an invalid address
system.cpu.iew.lsq.thread0.memOrderViolation          111                       # Number of memory ordering violations
system.cpu.iew.lsq.thread0.rescheduledLoads        26132                       # Number of loads that were rescheduled
system.cpu.iew.lsq.thread0.squashedLoads       130043                       # Number of loads squashed
system.cpu.iew.lsq.thread0.squashedStores        45565                       # Number of stores squashed
system.cpu.iew.memOrderViolationEvents            111                       # Number of memory order violations
system.cpu.iew.predictedNotTakenIncorrect        19762                       # Number of branches that were predicted not taken incorrectly
system.cpu.iew.predictedTakenIncorrect          18482                       # Number of branches that were predicted taken incorrectly
system.cpu.iew.wb_consumers                  12062417                       # num instructions consuming a value
system.cpu.iew.wb_count                      12304017                       # cumulative count of insts written-back
system.cpu.iew.wb_fanout                     0.589513                       # average fanout of values written-back
system.cpu.iew.wb_producers                   7110954                       # num instructions producing a value
system.cpu.iew.wb_rate                       1.615061                       # insts written-back per cycle
system.cpu.iew.wb_sent                       12313271                       # cumulative count of insts sent to commit
system.cpu.int_regfile_reads                 14064518                       # number of integer regfile reads
system.cpu.int_regfile_writes                 7132032                       # number of integer regfile writes
system.cpu.ipc                               1.312629                       # IPC: Instructions Per Cycle
system.cpu.ipc_total                         1.312629                       # IPC: Total IPC of All Threads
system.cpu.iq.FU_type_0::No_OpClass              5392      0.04%      0.04% # Type of FU issued
system.cpu.iq.FU_type_0::IntAlu               6931046     55.81%     55.86% # Type of FU issued
system.cpu.iq.FU_type_0::IntMult                57710      0.46%     56.32% # Type of FU issued
system.cpu.iq.FU_type_0::IntDiv                    29      0.00%     56.32% # Type of FU issued
system.cpu.iq.FU_type_0::FloatAdd              179679      1.45%     57.77% # Type of FU issued
system.cpu.iq.FU_type_0::FloatCmp               53062      0.43%     58.20% # Type of FU issued
system.cpu.iq.FU_type_0::FloatCvt              206882      1.67%     59.86% # Type of FU issued
system.cpu.iq.FU_type_0::FloatMult             171061      1.38%     61.24% # Type of FU issued
system.cpu.iq.FU_type_0::FloatMultAcc          395923      3.19%     64.43% # Type of FU issued
system.cpu.iq.FU_type_0::FloatDiv               61113      0.49%     64.92% # Type of FU issued
system.cpu.iq.FU_type_0::FloatMisc             256035      2.06%     66.98% # Type of FU issued
system.cpu.iq.FU_type_0::FloatSqrt                  0      0.00%     66.98% # Type of FU issued
system.cpu.iq.FU_type_0::SimdAdd                10124      0.08%     67.06% # Type of FU issued
system.cpu.iq.FU_type_0::SimdAddAcc                 0      0.00%     67.06% # Type of FU issued
system.cpu.iq.FU_type_0::SimdAlu                13309      0.11%     67.17% # Type of FU issued
system.cpu.iq.FU_type_0::SimdCmp                12276      0.10%     67.27% # Type of FU issued
system.cpu.iq.FU_type_0::SimdCvt                  723      0.01%     67.28% # Type of FU issued
system.cpu.iq.FU_type_0::SimdMisc               29593      0.24%     67.51% # Type of FU issued
system.cpu.iq.FU_type_0::SimdMult                   0      0.00%     67.51% # Type of FU issued
system.cpu.iq.FU_type_0::SimdMultAcc                0      0.00%     67.51% # Type of FU issued
system.cpu.iq.FU_type_0::SimdShift                  0      0.00%     67.51% # Type of FU issued
system.cpu.iq.FU_type_0::SimdShiftAcc               0      0.00%     67.51% # Type of FU issued
system.cpu.iq.FU_type_0::SimdDiv                    0      0.00%     67.51% # Type of FU issued
system.cpu.iq.FU_type_0::SimdSqrt                   0      0.00%     67.51% # Type of FU issued
system.cpu.iq.FU_type_0::SimdFloatAdd               0      0.00%     67.51% # Type of FU issued
system.cpu.iq.FU_type_0::SimdFloatAlu               0      0.00%     67.51% # Type of FU issued
system.cpu.iq.FU_type_0::SimdFloatCmp               0      0.00%     67.51% # Type of FU issued
system.cpu.iq.FU_type_0::SimdFloatCvt               0      0.00%     67.51% # Type of FU issued
system.cpu.iq.FU_type_0::SimdFloatDiv               0      0.00%     67.51% # Type of FU issued
system.cpu.iq.FU_type_0::SimdFloatMisc              0      0.00%     67.51% # Type of FU issued
system.cpu.iq.FU_type_0::SimdFloatMult              0      0.00%     67.51% # Type of FU issued
system.cpu.iq.FU_type_0::SimdFloatMultAcc            0      0.00%     67.51% # Type of FU issued
system.cpu.iq.FU_type_0::SimdFloatSqrt              0      0.00%     67.51% # Type of FU issued
system.cpu.iq.FU_type_0::SimdReduceAdd              0      0.00%     67.51% # Type of FU issued
system.cpu.iq.FU_type_0::SimdReduceAlu              0      0.00%     67.51% # Type of FU issued
system.cpu.iq.FU_type_0::SimdReduceCmp              0      0.00%     67.51% # Type of FU issued
system.cpu.iq.FU_type_0::SimdFloatReduceAdd            0      0.00%     67.51% # Type of FU issued
system.cpu.iq.FU_type_0::SimdFloatReduceCmp            0      0.00%     67.51% # Type of FU issued
system.cpu.iq.FU_type_0::SimdAes                    0      0.00%     67.51% # Type of FU issued
system.cpu.iq.FU_type_0::SimdAesMix                 0      0.00%     67.51% # Type of FU issued
system.cpu.iq.FU_type_0::SimdSha1Hash               0      0.00%     67.51% # Type of FU issued
system.cpu.iq.FU_type_0::SimdSha1Hash2              0      0.00%     67.51% # Type of FU issued
system.cpu.iq.FU_type_0::SimdSha256Hash             0      0.00%     67.51% # Type of FU issued
system.cpu.iq.FU_type_0::SimdSha256Hash2            0      0.00%     67.51% # Type of FU issued
system.cpu.iq.FU_type_0::SimdShaSigma2              0      0.00%     67.51% # Type of FU issued
system.cpu.iq.FU_type_0::SimdShaSigma3              0      0.00%     67.51% # Type of FU issued
system.cpu.iq.FU_type_0::SimdPredAlu                0      0.00%     67.51% # Type of FU issued
system.cpu.iq.FU_type_0::MemRead              2143670     17.26%     84.78% # Type of FU issued
system.cpu.iq.FU_type_0::MemWrite             1890430     15.22%    100.00% # Type of FU issued
system.cpu.iq.FU_type_0::FloatMemRead               0      0.00%    100.00% # Type of FU issued
system.cpu.iq.FU_type_0::FloatMemWrite              0      0.00%    100.00% # Type of FU issued
system.cpu.iq.FU_type_0::IprAccess                  0      0.00%    100.00% # Type of FU issued
system.cpu.iq.FU_type_0::InstPrefetch               0      0.00%    100.00% # Type of FU issued
system.cpu.iq.FU_type_0::total               12418057                       # Type of FU issued
system.cpu.iq.fp_alu_accesses                       0                       # Number of floating point alu accesses
system.cpu.iq.fp_inst_queue_reads                   0                       # Number of floating instruction queue reads
system.cpu.iq.fp_inst_queue_wakeup_accesses            0                       # Number of floating instruction queue wakeup accesses
system.cpu.iq.fp_inst_queue_writes                  0                       # Number of floating instruction queue writes
system.cpu.iq.fu_busy_cnt                      399883                       # FU busy when requested
system.cpu.iq.fu_busy_rate                   0.032202                       # FU busy rate (busy events/executed inst)
system.cpu.iq.fu_full::No_OpClass                   0      0.00%      0.00% # attempts to use FU when none available
system.cpu.iq.fu_full::IntAlu                   15090      3.77%      3.77% # attempts to use FU when none available
system.cpu.iq.fu_full::IntMult                     10      0.00%      3.78% # attempts to use FU when none available
system.cpu.iq.fu_full::IntDiv                       0      0.00%      3.78% # attempts to use FU when none available
system.cpu.iq.fu_full::FloatAdd                   449      0.11%      3.89% # attempts to use FU when none available
system.cpu.iq.fu_full::FloatCmp                   582      0.15%      4.03% # attempts to use FU when none available
system.cpu.iq.fu_full::FloatCvt                     0      0.00%      4.03% # attempts to use FU when none available
system.cpu.iq.fu_full::FloatMult                50165     12.54%     16.58% # attempts to use FU when none available
system.cpu.iq.fu_full::FloatMultAcc             67064     16.77%     33.35% # attempts to use FU when none available
system.cpu.iq.fu_full::FloatDiv                  2502      0.63%     33.98% # attempts to use FU when none available
system.cpu.iq.fu_full::FloatMisc                48667     12.17%     46.15% # attempts to use FU when none available
system.cpu.iq.fu_full::FloatSqrt                    0      0.00%     46.15% # attempts to use FU when none available
system.cpu.iq.fu_full::SimdAdd                      0      0.00%     46.15% # attempts to use FU when none available
system.cpu.iq.fu_full::SimdAddAcc                   0      0.00%     46.15% # attempts to use FU when none available
system.cpu.iq.fu_full::SimdAlu                    553      0.14%     46.28% # attempts to use FU when none available
system.cpu.iq.fu_full::SimdCmp                    513      0.13%     46.41% # attempts to use FU when none available
system.cpu.iq.fu_full::SimdCvt                      0      0.00%     46.41% # attempts to use FU when none available
system.cpu.iq.fu_full::SimdMisc                     0      0.00%     46.41% # attempts to use FU when none available
system.cpu.iq.fu_full::SimdMult                     0      0.00%     46.41% # attempts to use FU when none available
system.cpu.iq.fu_full::SimdMultAcc                  0      0.00%     46.41% # attempts to use FU when none available
system.cpu.iq.fu_full::SimdShift                    0      0.00%     46.41% # attempts to use FU when none available
system.cpu.iq.fu_full::SimdShiftAcc                 0      0.00%     46.41% # attempts to use FU when none available
system.cpu.iq.fu_full::SimdDiv                      0      0.00%     46.41% # attempts to use FU when none available
system.cpu.iq.fu_full::SimdSqrt                     0      0.00%     46.41% # attempts to use FU when none available
system.cpu.iq.fu_full::SimdFloatAdd                 0      0.00%     46.41% # attempts to use FU when none available
system.cpu.iq.fu_full::SimdFloatAlu                 0      0.00%     46.41% # attempts to use FU when none available
system.cpu.iq.fu_full::SimdFloatCmp                 0      0.00%     46.41% # attempts to use FU when none available
system.cpu.iq.fu_full::SimdFloatCvt                 0      0.00%     46.41% # attempts to use FU when none available
system.cpu.iq.fu_full::SimdFloatDiv                 0      0.00%     46.41% # attempts to use FU when none available
system.cpu.iq.fu_full::SimdFloatMisc                0      0.00%     46.41% # attempts to use FU when none available
system.cpu.iq.fu_full::SimdFloatMult                0      0.00%     46.41% # attempts to use FU when none available
system.cpu.iq.fu_full::SimdFloatMultAcc             0      0.00%     46.41% # attempts to use FU when none available
system.cpu.iq.fu_full::SimdFloatSqrt                0      0.00%     46.41% # attempts to use FU when none available
system.cpu.iq.fu_full::SimdReduceAdd                0      0.00%     46.41% # attempts to use FU when none available
system.cpu.iq.fu_full::SimdReduceAlu                0      0.00%     46.41% # attempts to use FU when none available
system.cpu.iq.fu_full::SimdReduceCmp                0      0.00%     46.41% # attempts to use FU when none available
system.cpu.iq.fu_full::SimdFloatReduceAdd            0      0.00%     46.41% # attempts to use FU when none available
system.cpu.iq.fu_full::SimdFloatReduceCmp            0      0.00%     46.41% # attempts to use FU when none available
system.cpu.iq.fu_full::SimdAes                      0      0.00%     46.41% # attempts to use FU when none available
system.cpu.iq.fu_full::SimdAesMix                   0      0.00%     46.41% # attempts to use FU when none available
system.cpu.iq.fu_full::SimdSha1Hash                 0      0.00%     46.41% # attempts to use FU when none available
system.cpu.iq.fu_full::SimdSha1Hash2                0      0.00%     46.41% # attempts to use FU when none available
system.cpu.iq.fu_full::SimdSha256Hash               0      0.00%     46.41% # attempts to use FU when none available
system.cpu.iq.fu_full::SimdSha256Hash2              0      0.00%     46.41% # attempts to use FU when none available
system.cpu.iq.fu_full::SimdShaSigma2                0      0.00%     46.41% # attempts to use FU when none available
system.cpu.iq.fu_full::SimdShaSigma3                0      0.00%     46.41% # attempts to use FU when none available
system.cpu.iq.fu_full::SimdPredAlu                  0      0.00%     46.41% # attempts to use FU when none available
system.cpu.iq.fu_full::MemRead                  41062     10.27%     56.68% # attempts to use FU when none available
system.cpu.iq.fu_full::MemWrite                173226     43.32%    100.00% # attempts to use FU when none available
system.cpu.iq.fu_full::FloatMemRead                 0      0.00%    100.00% # attempts to use FU when none available
system.cpu.iq.fu_full::FloatMemWrite                0      0.00%    100.00% # attempts to use FU when none available
system.cpu.iq.fu_full::IprAccess                    0      0.00%    100.00% # attempts to use FU when none available
system.cpu.iq.fu_full::InstPrefetch                 0      0.00%    100.00% # attempts to use FU when none available
system.cpu.iq.int_alu_accesses               10663619                       # Number of integer alu accesses
system.cpu.iq.int_inst_queue_reads           28514544                       # Number of integer instruction queue reads
system.cpu.iq.int_inst_queue_wakeup_accesses     10333070                       # Number of integer instruction queue wakeup accesses
system.cpu.iq.int_inst_queue_writes          11082734                       # Number of integer instruction queue writes
system.cpu.iq.iqInstsAdded                   12557853                       # Number of instructions added to the IQ (excludes non-spec)
system.cpu.iq.iqInstsIssued                  12418057                       # Number of instructions issued
system.cpu.iq.iqNonSpecInstsAdded                2010                       # Number of non-speculative instructions added to the IQ
system.cpu.iq.iqSquashedInstsExamined          665375                       # Number of squashed instructions iterated over during squash; mainly for profiling
system.cpu.iq.iqSquashedInstsIssued              1979                       # Number of squashed instructions issued
system.cpu.iq.iqSquashedNonSpecRemoved             53                       # Number of squashed non-spec instructions that were removed
system.cpu.iq.iqSquashedOperandsExamined       591726                       # Number of squashed operands that are examined and possibly removed from graph
system.cpu.iq.issued_per_cycle::samples       7410166                       # Number of insts issued each cycle
system.cpu.iq.issued_per_cycle::mean         1.675814                       # Number of insts issued each cycle
system.cpu.iq.issued_per_cycle::stdev        2.113032                       # Number of insts issued each cycle
system.cpu.iq.issued_per_cycle::underflows            0      0.00%      0.00% # Number of insts issued each cycle
system.cpu.iq.issued_per_cycle::0             3443129     46.46%     46.46% # Number of insts issued each cycle
system.cpu.iq.issued_per_cycle::1             1042038     14.06%     60.53% # Number of insts issued each cycle
system.cpu.iq.issued_per_cycle::2              708523      9.56%     70.09% # Number of insts issued each cycle
system.cpu.iq.issued_per_cycle::3              815127     11.00%     81.09% # Number of insts issued each cycle
system.cpu.iq.issued_per_cycle::4              478988      6.46%     87.55% # Number of insts issued each cycle
system.cpu.iq.issued_per_cycle::5              372428      5.03%     92.58% # Number of insts issued each cycle
system.cpu.iq.issued_per_cycle::6              236498      3.19%     95.77% # Number of insts issued each cycle
system.cpu.iq.issued_per_cycle::7              190968      2.58%     98.35% # Number of insts issued each cycle
system.cpu.iq.issued_per_cycle::8              122467      1.65%    100.00% # Number of insts issued each cycle
system.cpu.iq.issued_per_cycle::overflows            0      0.00%    100.00% # Number of insts issued each cycle
system.cpu.iq.issued_per_cycle::min_value            0                       # Number of insts issued each cycle
system.cpu.iq.issued_per_cycle::max_value            8                       # Number of insts issued each cycle
system.cpu.iq.issued_per_cycle::total         7410166                       # Number of insts issued each cycle
system.cpu.iq.rate                           1.630030                       # Inst issue rate
system.cpu.iq.vec_alu_accesses                2148929                       # Number of vector alu accesses
system.cpu.iq.vec_inst_queue_reads            4133593                       # Number of vector instruction queue reads
system.cpu.iq.vec_inst_queue_wakeup_accesses      1970947                       # Number of vector instruction queue wakeup accesses
system.cpu.iq.vec_inst_queue_writes           2142613                       # Number of vector instruction queue writes
system.cpu.itb.accesses                             0                       # DTB accesses
system.cpu.itb.align_faults                         0                       # Number of TLB faults due to alignment restrictions
system.cpu.itb.domain_faults                        0                       # Number of TLB faults due to domain restrictions
system.cpu.itb.flush_entries                        0                       # Number of entries that have been flushed from TLB
system.cpu.itb.flush_tlb                            0                       # Number of times complete TLB was flushed
system.cpu.itb.flush_tlb_asid                       0                       # Number of times TLB was flushed by ASID
system.cpu.itb.flush_tlb_mva                        0                       # Number of times TLB was flushed by MVA
system.cpu.itb.flush_tlb_mva_asid                   0                       # Number of times TLB was flushed by MVA & ASID
system.cpu.itb.hits                                 0                       # DTB hits
system.cpu.itb.inst_accesses                        0                       # ITB inst accesses
system.cpu.itb.inst_hits                            0                       # ITB inst hits
system.cpu.itb.inst_misses                          0                       # ITB inst misses
system.cpu.itb.misses                               0                       # DTB misses
system.cpu.itb.perms_faults                         0                       # Number of TLB faults due to permissions restrictions
system.cpu.itb.prefetch_faults                      0                       # Number of TLB faults due to prefetch
system.cpu.itb.read_accesses                        0                       # DTB read accesses
system.cpu.itb.read_hits                            0                       # DTB read hits
system.cpu.itb.read_misses                          0                       # DTB read misses
system.cpu.itb.stage2_mmu.stage2_tlb.accesses            0                       # DTB accesses
system.cpu.itb.stage2_mmu.stage2_tlb.align_faults            0                       # Number of TLB faults due to alignment restrictions
system.cpu.itb.stage2_mmu.stage2_tlb.domain_faults            0                       # Number of TLB faults due to domain restrictions
system.cpu.itb.stage2_mmu.stage2_tlb.flush_entries            0                       # Number of entries that have been flushed from TLB
system.cpu.itb.stage2_mmu.stage2_tlb.flush_tlb            0                       # Number of times complete TLB was flushed
system.cpu.itb.stage2_mmu.stage2_tlb.flush_tlb_asid            0                       # Number of times TLB was flushed by ASID
system.cpu.itb.stage2_mmu.stage2_tlb.flush_tlb_mva            0                       # Number of times TLB was flushed by MVA
system.cpu.itb.stage2_mmu.stage2_tlb.flush_tlb_mva_asid            0                       # Number of times TLB was flushed by MVA & ASID
system.cpu.itb.stage2_mmu.stage2_tlb.hits            0                       # DTB hits
system.cpu.itb.stage2_mmu.stage2_tlb.inst_accesses            0                       # ITB inst accesses
system.cpu.itb.stage2_mmu.stage2_tlb.inst_hits            0                       # ITB inst hits
system.cpu.itb.stage2_mmu.stage2_tlb.inst_misses            0                       # ITB inst misses
system.cpu.itb.stage2_mmu.stage2_tlb.misses            0                       # DTB misses
system.cpu.itb.stage2_mmu.stage2_tlb.perms_faults            0                       # Number of TLB faults due to permissions restrictions
system.cpu.itb.stage2_mmu.stage2_tlb.prefetch_faults            0                       # Number of TLB faults due to prefetch
system.cpu.itb.stage2_mmu.stage2_tlb.read_accesses            0                       # DTB read accesses
system.cpu.itb.stage2_mmu.stage2_tlb.read_hits            0                       # DTB read hits
system.cpu.itb.stage2_mmu.stage2_tlb.read_misses            0                       # DTB read misses
system.cpu.itb.stage2_mmu.stage2_tlb.walker.walkRequestOrigin_Requested::Data            0                       # Table walker requests started/completed, data/inst
system.cpu.itb.stage2_mmu.stage2_tlb.walker.walkRequestOrigin_Requested::Inst            0                       # Table walker requests started/completed, data/inst
system.cpu.itb.stage2_mmu.stage2_tlb.walker.walkRequestOrigin_Requested::total            0                       # Table walker requests started/completed, data/inst
system.cpu.itb.stage2_mmu.stage2_tlb.walker.walkRequestOrigin_Completed::Data            0                       # Table walker requests started/completed, data/inst
system.cpu.itb.stage2_mmu.stage2_tlb.walker.walkRequestOrigin_Completed::Inst            0                       # Table walker requests started/completed, data/inst
system.cpu.itb.stage2_mmu.stage2_tlb.walker.walkRequestOrigin_Completed::total            0                       # Table walker requests started/completed, data/inst
system.cpu.itb.stage2_mmu.stage2_tlb.walker.walkRequestOrigin::total            0                       # Table walker requests started/completed, data/inst
system.cpu.itb.stage2_mmu.stage2_tlb.walker.walks            0                       # Table walker walks requested
system.cpu.itb.stage2_mmu.stage2_tlb.write_accesses            0                       # DTB write accesses
system.cpu.itb.stage2_mmu.stage2_tlb.write_hits            0                       # DTB write hits
system.cpu.itb.stage2_mmu.stage2_tlb.write_misses            0                       # DTB write misses
system.cpu.itb.walker.walkRequestOrigin_Requested::Data            0                       # Table walker requests started/completed, data/inst
system.cpu.itb.walker.walkRequestOrigin_Requested::Inst            0                       # Table walker requests started/completed, data/inst
system.cpu.itb.walker.walkRequestOrigin_Requested::total            0                       # Table walker requests started/completed, data/inst
system.cpu.itb.walker.walkRequestOrigin_Completed::Data            0                       # Table walker requests started/completed, data/inst
system.cpu.itb.walker.walkRequestOrigin_Completed::Inst            0                       # Table walker requests started/completed, data/inst
system.cpu.itb.walker.walkRequestOrigin_Completed::total            0                       # Table walker requests started/completed, data/inst
system.cpu.itb.walker.walkRequestOrigin::total            0                       # Table walker requests started/completed, data/inst
system.cpu.itb.walker.walks                         0                       # Table walker walks requested
system.cpu.itb.write_accesses                       0                       # DTB write accesses
system.cpu.itb.write_hits                           0                       # DTB write hits
system.cpu.itb.write_misses                         0                       # DTB write misses
system.cpu.memDep0.conflictingLoads             49954                       # Number of conflicting loads.
system.cpu.memDep0.conflictingStores            74342                       # Number of conflicting stores.
system.cpu.memDep0.insertedLoads              2130959                       # Number of loads inserted to the mem dependence unit.
system.cpu.memDep0.insertedStores             1901686                       # Number of stores inserted to the mem dependence unit.
system.cpu.misc_regfile_reads                12646058                       # number of misc regfile reads
system.cpu.misc_regfile_writes                1077076                       # number of misc regfile writes
system.cpu.numCycles                          7618299                       # number of cpu cycles simulated
system.cpu.numWorkItemsCompleted                    0                       # number of work items this cpu completed
system.cpu.numWorkItemsStarted                      0                       # number of work items this cpu started
system.cpu.rename.BlockCycles                  147705                       # Number of cycles rename is blocking
system.cpu.rename.CommittedMaps              12621537                       # Number of HB maps that are committed
system.cpu.rename.IQFullEvents                 131801                       # Number of times rename has blocked due to IQ full
system.cpu.rename.IdleCycles                  3897333                       # Number of cycles rename is idle
system.cpu.rename.LQFullEvents                 204441                       # Number of times rename has blocked due to LQ full
system.cpu.rename.ROBFullEvents                 36390                       # Number of times rename has blocked due to ROB full
system.cpu.rename.RenameLookups              25487997                       # Number of register rename lookups that rename has made
system.cpu.rename.RenamedInsts               12693404                       # Number of instructions processed by rename
system.cpu.rename.RenamedOperands            13531862                       # Number of destination operands rename has renamed
system.cpu.rename.RunCycles                   2192026                       # Number of cycles rename is running
system.cpu.rename.SQFullEvents                 539291                       # Number of times rename has blocked due to SQ full
system.cpu.rename.SquashCycles                  32894                       # Number of cycles rename is squashing
system.cpu.rename.UnblockCycles                925449                       # Number of cycles rename is unblocking
system.cpu.rename.UndoneMaps                   910209                       # Number of HB maps that are undone due to squashing
system.cpu.rename.int_rename_lookups         14385376                       # Number of integer rename lookups
system.cpu.rename.serializeStallCycles         214759                       # count of cycles rename stalled for serializing inst
system.cpu.rename.serializingInsts              18490                       # count of serializing insts renamed
system.cpu.rename.skidInsts                    901557                       # count of insts added to the skid buffer
system.cpu.rename.tempSerializingInsts           2015                       # count of temporary serializing insts renamed
system.cpu.rename.vec_rename_lookups          2632483                       # Number of vector rename lookups
system.cpu.rob.rob_reads                     19112368                       # The number of ROB reads
system.cpu.rob.rob_writes                    25258964                       # The number of ROB writes
system.cpu.timesIdled                           42747                       # Number of times that the entire CPU went into an idle state and unscheduled itself
system.cpu.vec_regfile_reads                  2517807                       # number of vector regfile reads
system.cpu.vec_regfile_writes                 1885578                       # number of vector regfile writes
system.cpu.workload.numSyscalls                    34                       # Number of system calls
system.membus.snoop_filter.hit_multi_requests            0                       # Number of requests hitting in the snoop filter with multiple (>1) holders of the requested data.
system.membus.snoop_filter.hit_multi_snoops            0                       # Number of snoops hitting in the snoop filter with multiple (>1) holders of the requested data.
system.membus.snoop_filter.hit_single_requests            0                       # Number of requests hitting in the snoop filter with a single holder of the requested data.
system.membus.snoop_filter.hit_single_snoops            0                       # Number of snoops hitting in the snoop filter with a single holder of the requested data.
system.membus.snoop_filter.tot_requests          6966                       # Total number of requests made to the snoop filter.
system.membus.snoop_filter.tot_snoops               0                       # Total number of snoops made to the snoop filter.
system.tol2bus.snoop_filter.hit_multi_requests            1                       # Number of requests hitting in the snoop filter with multiple (>1) holders of the requested data.
system.tol2bus.snoop_filter.hit_multi_snoops            0                       # Number of snoops hitting in the snoop filter with multiple (>1) holders of the requested data.
system.tol2bus.snoop_filter.hit_single_requests       136108                       # Number of requests hitting in the snoop filter with a single holder of the requested data.
system.tol2bus.snoop_filter.hit_single_snoops            0                       # Number of snoops hitting in the snoop filter with a single holder of the requested data.
system.tol2bus.snoop_filter.tot_requests       273368                       # Total number of requests made to the snoop filter.
system.tol2bus.snoop_filter.tot_snoops              0                       # Total number of snoops made to the snoop filter.
system.membus.trans_dist::ReadResp               1713                       # Transaction distribution
system.membus.trans_dist::ReadExReq              5241                       # Transaction distribution
system.membus.trans_dist::ReadExResp             5241                       # Transaction distribution
system.membus.trans_dist::ReadSharedReq          1713                       # Transaction distribution
system.membus.trans_dist::InvalidateReq            12                       # Transaction distribution
system.membus.pkt_count_system.l2.mem_side::system.mem_ctrls.port        13920                       # Packet count per connected master and slave (bytes)
system.membus.pkt_count::total                  13920                       # Packet count per connected master and slave (bytes)
system.membus.pkt_size_system.l2.mem_side::system.mem_ctrls.port       445056                       # Cumulative packet size per connected master and slave (bytes)
system.membus.pkt_size::total                  445056                       # Cumulative packet size per connected master and slave (bytes)
system.membus.snoops                                0                       # Total snoops (count)
system.membus.snoopTraffic                          0                       # Total snoop traffic (bytes)
system.membus.snoop_fanout::samples              6966                       # Request fanout histogram
system.membus.snoop_fanout::mean                    0                       # Request fanout histogram
system.membus.snoop_fanout::stdev                   0                       # Request fanout histogram
system.membus.snoop_fanout::underflows              0      0.00%      0.00% # Request fanout histogram
system.membus.snoop_fanout::0                    6966    100.00%    100.00% # Request fanout histogram
system.membus.snoop_fanout::1                       0      0.00%    100.00% # Request fanout histogram
system.membus.snoop_fanout::overflows               0      0.00%    100.00% # Request fanout histogram
system.membus.snoop_fanout::min_value               0                       # Request fanout histogram
system.membus.snoop_fanout::max_value               0                       # Request fanout histogram
system.membus.snoop_fanout::total                6966                       # Request fanout histogram
system.membus.reqLayer0.occupancy             8717000                       # Layer occupancy (ticks)
system.membus.reqLayer0.utilization               0.2                       # Layer utilization (%)
system.membus.respLayer1.occupancy           36780500                       # Layer occupancy (ticks)
system.membus.respLayer1.utilization              1.0                       # Layer utilization (%)
system.membus.power_state.pwrStateResidencyTicks::UNDEFINED   3809148500                       # Cumulative time (in ticks) in various power states
system.tol2bus.trans_dist::ReadResp            131448                       # Transaction distribution
system.tol2bus.trans_dist::WritebackDirty         8079                       # Transaction distribution
system.tol2bus.trans_dist::WritebackClean       127123                       # Transaction distribution
system.tol2bus.trans_dist::CleanEvict             906                       # Transaction distribution
system.tol2bus.trans_dist::ReadExReq             5639                       # Transaction distribution
system.tol2bus.trans_dist::ReadExResp            5639                       # Transaction distribution
system.tol2bus.trans_dist::ReadCleanReq        127251                       # Transaction distribution
system.tol2bus.trans_dist::ReadSharedReq         4197                       # Transaction distribution
system.tol2bus.trans_dist::InvalidateReq          173                       # Transaction distribution
system.tol2bus.trans_dist::InvalidateResp          173                       # Transaction distribution
system.tol2bus.pkt_count_system.cpu.icache.mem_side::system.l2.cpu_side       381625                       # Packet count per connected master and slave (bytes)
system.tol2bus.pkt_count_system.cpu.dcache.mem_side::system.l2.cpu_side        29003                       # Packet count per connected master and slave (bytes)
system.tol2bus.pkt_count::total                410628                       # Packet count per connected master and slave (bytes)
system.tol2bus.pkt_size_system.cpu.icache.mem_side::system.l2.cpu_side     16279936                       # Cumulative packet size per connected master and slave (bytes)
system.tol2bus.pkt_size_system.cpu.dcache.mem_side::system.l2.cpu_side      1146560                       # Cumulative packet size per connected master and slave (bytes)
system.tol2bus.pkt_size::total               17426496                       # Cumulative packet size per connected master and slave (bytes)
system.tol2bus.snoops                               0                       # Total snoops (count)
system.tol2bus.snoopTraffic                         0                       # Total snoop traffic (bytes)
system.tol2bus.snoop_fanout::samples           137260                       # Request fanout histogram
system.tol2bus.snoop_fanout::mean            0.000007                       # Request fanout histogram
system.tol2bus.snoop_fanout::stdev           0.002699                       # Request fanout histogram
system.tol2bus.snoop_fanout::underflows             0      0.00%      0.00% # Request fanout histogram
system.tol2bus.snoop_fanout::0                 137259    100.00%    100.00% # Request fanout histogram
system.tol2bus.snoop_fanout::1                      1      0.00%    100.00% # Request fanout histogram
system.tol2bus.snoop_fanout::2                      0      0.00%    100.00% # Request fanout histogram
system.tol2bus.snoop_fanout::overflows              0      0.00%    100.00% # Request fanout histogram
system.tol2bus.snoop_fanout::min_value              0                       # Request fanout histogram
system.tol2bus.snoop_fanout::max_value              1                       # Request fanout histogram
system.tol2bus.snoop_fanout::total             137260                       # Request fanout histogram
system.tol2bus.reqLayer0.occupancy          271886000                       # Layer occupancy (ticks)
system.tol2bus.reqLayer0.utilization              7.1                       # Layer utilization (%)
system.tol2bus.respLayer1.occupancy          14842496                       # Layer occupancy (ticks)
system.tol2bus.respLayer1.utilization             0.4                       # Layer utilization (%)
system.tol2bus.respLayer0.occupancy         190876500                       # Layer occupancy (ticks)
system.tol2bus.respLayer0.utilization             5.0                       # Layer utilization (%)
system.tol2bus.power_state.pwrStateResidencyTicks::UNDEFINED   3809148500                       # Cumulative time (in ticks) in various power states
system.voltage_domain.voltage                       1                       # Voltage in Volts
system.clk_domain.clock                          1000                       # Clock period in ticks
system.l2.demand_hits::.cpu.inst               126030                       # number of demand (read+write) hits
system.l2.demand_hits::.cpu.data                 4103                       # number of demand (read+write) hits
system.l2.demand_hits::total                   130133                       # number of demand (read+write) hits
system.l2.overall_hits::.cpu.inst              126030                       # number of overall hits
system.l2.overall_hits::.cpu.data                4103                       # number of overall hits
system.l2.overall_hits::total                  130133                       # number of overall hits
system.l2.demand_misses::.cpu.inst               1221                       # number of demand (read+write) misses
system.l2.demand_misses::.cpu.data               5733                       # number of demand (read+write) misses
system.l2.demand_misses::total                   6954                       # number of demand (read+write) misses
system.l2.overall_misses::.cpu.inst              1221                       # number of overall misses
system.l2.overall_misses::.cpu.data              5733                       # number of overall misses
system.l2.overall_misses::total                  6954                       # number of overall misses
system.l2.demand_miss_latency::.cpu.inst     96104000                       # number of demand (read+write) miss cycles
system.l2.demand_miss_latency::.cpu.data    465318000                       # number of demand (read+write) miss cycles
system.l2.demand_miss_latency::total        561422000                       # number of demand (read+write) miss cycles
system.l2.overall_miss_latency::.cpu.inst     96104000                       # number of overall miss cycles
system.l2.overall_miss_latency::.cpu.data    465318000                       # number of overall miss cycles
system.l2.overall_miss_latency::total       561422000                       # number of overall miss cycles
system.l2.demand_accesses::.cpu.inst           127251                       # number of demand (read+write) accesses
system.l2.demand_accesses::.cpu.data             9836                       # number of demand (read+write) accesses
system.l2.demand_accesses::total               137087                       # number of demand (read+write) accesses
system.l2.overall_accesses::.cpu.inst          127251                       # number of overall (read+write) accesses
system.l2.overall_accesses::.cpu.data            9836                       # number of overall (read+write) accesses
system.l2.overall_accesses::total              137087                       # number of overall (read+write) accesses
system.l2.demand_miss_rate::.cpu.inst        0.009595                       # miss rate for demand accesses
system.l2.demand_miss_rate::.cpu.data        0.582859                       # miss rate for demand accesses
system.l2.demand_miss_rate::total            0.050727                       # miss rate for demand accesses
system.l2.overall_miss_rate::.cpu.inst       0.009595                       # miss rate for overall accesses
system.l2.overall_miss_rate::.cpu.data       0.582859                       # miss rate for overall accesses
system.l2.overall_miss_rate::total           0.050727                       # miss rate for overall accesses
system.l2.demand_avg_miss_latency::.cpu.inst 78709.254709                       # average overall miss latency
system.l2.demand_avg_miss_latency::.cpu.data 81164.835165                       # average overall miss latency
system.l2.demand_avg_miss_latency::total 80733.678458                       # average overall miss latency
system.l2.overall_avg_miss_latency::.cpu.inst 78709.254709                       # average overall miss latency
system.l2.overall_avg_miss_latency::.cpu.data 81164.835165                       # average overall miss latency
system.l2.overall_avg_miss_latency::total 80733.678458                       # average overall miss latency
system.l2.blocked_cycles::no_mshrs                  0                       # number of cycles access was blocked
system.l2.blocked_cycles::no_targets                0                       # number of cycles access was blocked
system.l2.blocked::no_mshrs                         0                       # number of cycles access was blocked
system.l2.blocked::no_targets                       0                       # number of cycles access was blocked
system.l2.avg_blocked_cycles::no_mshrs            nan                       # average number of cycles each access was blocked
system.l2.avg_blocked_cycles::no_targets          nan                       # average number of cycles each access was blocked
system.l2.demand_mshr_misses::.cpu.inst          1221                       # number of demand (read+write) MSHR misses
system.l2.demand_mshr_misses::.cpu.data          5733                       # number of demand (read+write) MSHR misses
system.l2.demand_mshr_misses::total              6954                       # number of demand (read+write) MSHR misses
system.l2.overall_mshr_misses::.cpu.inst         1221                       # number of overall MSHR misses
system.l2.overall_mshr_misses::.cpu.data         5733                       # number of overall MSHR misses
system.l2.overall_mshr_misses::total             6954                       # number of overall MSHR misses
system.l2.demand_mshr_miss_latency::.cpu.inst     83894000                       # number of demand (read+write) MSHR miss cycles
system.l2.demand_mshr_miss_latency::.cpu.data    407988000                       # number of demand (read+write) MSHR miss cycles
system.l2.demand_mshr_miss_latency::total    491882000                       # number of demand (read+write) MSHR miss cycles
system.l2.overall_mshr_miss_latency::.cpu.inst     83894000                       # number of overall MSHR miss cycles
system.l2.overall_mshr_miss_latency::.cpu.data    407988000                       # number of overall MSHR miss cycles
system.l2.overall_mshr_miss_latency::total    491882000                       # number of overall MSHR miss cycles
system.l2.demand_mshr_miss_rate::.cpu.inst     0.009595                       # mshr miss rate for demand accesses
system.l2.demand_mshr_miss_rate::.cpu.data     0.582859                       # mshr miss rate for demand accesses
system.l2.demand_mshr_miss_rate::total       0.050727                       # mshr miss rate for demand accesses
system.l2.overall_mshr_miss_rate::.cpu.inst     0.009595                       # mshr miss rate for overall accesses
system.l2.overall_mshr_miss_rate::.cpu.data     0.582859                       # mshr miss rate for overall accesses
system.l2.overall_mshr_miss_rate::total      0.050727                       # mshr miss rate for overall accesses
system.l2.demand_avg_mshr_miss_latency::.cpu.inst 68709.254709                       # average overall mshr miss latency
system.l2.demand_avg_mshr_miss_latency::.cpu.data 71164.835165                       # average overall mshr miss latency
system.l2.demand_avg_mshr_miss_latency::total 70733.678458                       # average overall mshr miss latency
system.l2.overall_avg_mshr_miss_latency::.cpu.inst 68709.254709                       # average overall mshr miss latency
system.l2.overall_avg_mshr_miss_latency::.cpu.data 71164.835165                       # average overall mshr miss latency
system.l2.overall_avg_mshr_miss_latency::total 70733.678458                       # average overall mshr miss latency
system.l2.replacements                              0                       # number of replacements
system.l2.WritebackDirty_hits::.writebacks         8079                       # number of WritebackDirty hits
system.l2.WritebackDirty_hits::total             8079                       # number of WritebackDirty hits
system.l2.WritebackDirty_accesses::.writebacks         8079                       # number of WritebackDirty accesses(hits+misses)
system.l2.WritebackDirty_accesses::total         8079                       # number of WritebackDirty accesses(hits+misses)
system.l2.WritebackClean_hits::.writebacks       127122                       # number of WritebackClean hits
system.l2.WritebackClean_hits::total           127122                       # number of WritebackClean hits
system.l2.WritebackClean_accesses::.writebacks       127122                       # number of WritebackClean accesses(hits+misses)
system.l2.WritebackClean_accesses::total       127122                       # number of WritebackClean accesses(hits+misses)
system.l2.ReadExReq_hits::.cpu.data               398                       # number of ReadExReq hits
system.l2.ReadExReq_hits::total                   398                       # number of ReadExReq hits
system.l2.ReadExReq_misses::.cpu.data            5241                       # number of ReadExReq misses
system.l2.ReadExReq_misses::total                5241                       # number of ReadExReq misses
system.l2.ReadExReq_miss_latency::.cpu.data    424620000                       # number of ReadExReq miss cycles
system.l2.ReadExReq_miss_latency::total     424620000                       # number of ReadExReq miss cycles
system.l2.ReadExReq_accesses::.cpu.data          5639                       # number of ReadExReq accesses(hits+misses)
system.l2.ReadExReq_accesses::total              5639                       # number of ReadExReq accesses(hits+misses)
system.l2.ReadExReq_miss_rate::.cpu.data     0.929420                       # miss rate for ReadExReq accesses
system.l2.ReadExReq_miss_rate::total         0.929420                       # miss rate for ReadExReq accesses
system.l2.ReadExReq_avg_miss_latency::.cpu.data 81018.889525                       # average ReadExReq miss latency
system.l2.ReadExReq_avg_miss_latency::total 81018.889525                       # average ReadExReq miss latency
system.l2.ReadExReq_mshr_misses::.cpu.data         5241                       # number of ReadExReq MSHR misses
system.l2.ReadExReq_mshr_misses::total           5241                       # number of ReadExReq MSHR misses
system.l2.ReadExReq_mshr_miss_latency::.cpu.data    372210000                       # number of ReadExReq MSHR miss cycles
system.l2.ReadExReq_mshr_miss_latency::total    372210000                       # number of ReadExReq MSHR miss cycles
system.l2.ReadExReq_mshr_miss_rate::.cpu.data     0.929420                       # mshr miss rate for ReadExReq accesses
system.l2.ReadExReq_mshr_miss_rate::total     0.929420                       # mshr miss rate for ReadExReq accesses
system.l2.ReadExReq_avg_mshr_miss_latency::.cpu.data 71018.889525                       # average ReadExReq mshr miss latency
system.l2.ReadExReq_avg_mshr_miss_latency::total 71018.889525                       # average ReadExReq mshr miss latency
system.l2.ReadCleanReq_hits::.cpu.inst         126030                       # number of ReadCleanReq hits
system.l2.ReadCleanReq_hits::total             126030                       # number of ReadCleanReq hits
system.l2.ReadCleanReq_misses::.cpu.inst         1221                       # number of ReadCleanReq misses
system.l2.ReadCleanReq_misses::total             1221                       # number of ReadCleanReq misses
system.l2.ReadCleanReq_miss_latency::.cpu.inst     96104000                       # number of ReadCleanReq miss cycles
system.l2.ReadCleanReq_miss_latency::total     96104000                       # number of ReadCleanReq miss cycles
system.l2.ReadCleanReq_accesses::.cpu.inst       127251                       # number of ReadCleanReq accesses(hits+misses)
system.l2.ReadCleanReq_accesses::total         127251                       # number of ReadCleanReq accesses(hits+misses)
system.l2.ReadCleanReq_miss_rate::.cpu.inst     0.009595                       # miss rate for ReadCleanReq accesses
system.l2.ReadCleanReq_miss_rate::total      0.009595                       # miss rate for ReadCleanReq accesses
system.l2.ReadCleanReq_avg_miss_latency::.cpu.inst 78709.254709                       # average ReadCleanReq miss latency
system.l2.ReadCleanReq_avg_miss_latency::total 78709.254709                       # average ReadCleanReq miss latency
system.l2.ReadCleanReq_mshr_misses::.cpu.inst         1221                       # number of ReadCleanReq MSHR misses
system.l2.ReadCleanReq_mshr_misses::total         1221                       # number of ReadCleanReq MSHR misses
system.l2.ReadCleanReq_mshr_miss_latency::.cpu.inst     83894000                       # number of ReadCleanReq MSHR miss cycles
system.l2.ReadCleanReq_mshr_miss_latency::total     83894000                       # number of ReadCleanReq MSHR miss cycles
system.l2.ReadCleanReq_mshr_miss_rate::.cpu.inst     0.009595                       # mshr miss rate for ReadCleanReq accesses
system.l2.ReadCleanReq_mshr_miss_rate::total     0.009595                       # mshr miss rate for ReadCleanReq accesses
system.l2.ReadCleanReq_avg_mshr_miss_latency::.cpu.inst 68709.254709                       # average ReadCleanReq mshr miss latency
system.l2.ReadCleanReq_avg_mshr_miss_latency::total 68709.254709                       # average ReadCleanReq mshr miss latency
[...]
system.cpu.icache.tags.occ_task_id_percent::1024            1                       # Percentage of cache occupancy per task id
system.cpu.icache.tags.tag_accesses           3102649                       # Number of tag accesses
system.cpu.icache.tags.data_accesses          3102649                       # Number of data accesses
system.cpu.icache.tags.power_state.pwrStateResidencyTicks::UNDEFINED   3809148500                       # Cumulative time (in ticks) in various power states
system.cpu.dtb.walker.power_state.pwrStateResidencyTicks::UNDEFINED   3809148500                       # Cumulative time (in ticks) in various power states
system.cpu.dtb.stage2_mmu.stage2_tlb.walker.power_state.pwrStateResidencyTicks::UNDEFINED   3809148500                       # Cumulative time (in ticks) in various power states
system.cpu.itb.walker.power_state.pwrStateResidencyTicks::UNDEFINED   3809148500                       # Cumulative time (in ticks) in various power states
system.cpu.itb.stage2_mmu.stage2_tlb.walker.power_state.pwrStateResidencyTicks::UNDEFINED   3809148500                       # Cumulative time (in ticks) in various power states
system.cpu.dcache.demand_hits::.cpu.data      3906255                       # number of demand (read+write) hits
system.cpu.dcache.demand_hits::total          3906255                       # number of demand (read+write) hits
system.cpu.dcache.overall_hits::.cpu.data      3907428                       # number of overall hits
system.cpu.dcache.overall_hits::total         3907428                       # number of overall hits
system.cpu.dcache.demand_misses::.cpu.data        39213                       # number of demand (read+write) misses
system.cpu.dcache.demand_misses::total          39213                       # number of demand (read+write) misses
system.cpu.dcache.overall_misses::.cpu.data        39225                       # number of overall misses
system.cpu.dcache.overall_misses::total         39225                       # number of overall misses
system.cpu.dcache.demand_miss_latency::.cpu.data   1894400573                       # number of demand (read+write) miss cycles
system.cpu.dcache.demand_miss_latency::total   1894400573                       # number of demand (read+write) miss cycles
system.cpu.dcache.overall_miss_latency::.cpu.data   1894400573                       # number of overall miss cycles
system.cpu.dcache.overall_miss_latency::total   1894400573                       # number of overall miss cycles
system.cpu.dcache.demand_accesses::.cpu.data      3945468                       # number of demand (read+write) accesses
system.cpu.dcache.demand_accesses::total      3945468                       # number of demand (read+write) accesses
system.cpu.dcache.overall_accesses::.cpu.data      3946653                       # number of overall (read+write) accesses
system.cpu.dcache.overall_accesses::total      3946653                       # number of overall (read+write) accesses
system.cpu.dcache.demand_miss_rate::.cpu.data     0.009939                       # miss rate for demand accesses
system.cpu.dcache.demand_miss_rate::total     0.009939                       # miss rate for demand accesses
system.cpu.dcache.overall_miss_rate::.cpu.data     0.009939                       # miss rate for overall accesses
system.cpu.dcache.overall_miss_rate::total     0.009939                       # miss rate for overall accesses
system.cpu.dcache.demand_avg_miss_latency::.cpu.data 48310.523882                       # average overall miss latency
system.cpu.dcache.demand_avg_miss_latency::total 48310.523882                       # average overall miss latency
system.cpu.dcache.overall_avg_miss_latency::.cpu.data 48295.744372                       # average overall miss latency
system.cpu.dcache.overall_avg_miss_latency::total 48295.744372                       # average overall miss latency
system.cpu.dcache.blocked_cycles::no_mshrs        22965                       # number of cycles access was blocked
system.cpu.dcache.blocked_cycles::no_targets            0                       # number of cycles access was blocked
system.cpu.dcache.blocked::no_mshrs               672                       # number of cycles access was blocked
system.cpu.dcache.blocked::no_targets               0                       # number of cycles access was blocked
system.cpu.dcache.avg_blocked_cycles::no_mshrs    34.174107                       # average number of cycles each access was blocked
system.cpu.dcache.avg_blocked_cycles::no_targets          nan                       # average number of cycles each access was blocked
system.cpu.dcache.writebacks::.writebacks         8079                       # number of writebacks
system.cpu.dcache.writebacks::total              8079                       # number of writebacks
system.cpu.dcache.demand_mshr_hits::.cpu.data        29207                       # number of demand (read+write) MSHR hits
system.cpu.dcache.demand_mshr_hits::total        29207                       # number of demand (read+write) MSHR hits
system.cpu.dcache.overall_mshr_hits::.cpu.data        29207                       # number of overall MSHR hits
system.cpu.dcache.overall_mshr_hits::total        29207                       # number of overall MSHR hits
system.cpu.dcache.demand_mshr_misses::.cpu.data        10006                       # number of demand (read+write) MSHR misses
system.cpu.dcache.demand_mshr_misses::total        10006                       # number of demand (read+write) MSHR misses
system.cpu.dcache.overall_mshr_misses::.cpu.data        10009                       # number of overall MSHR misses
system.cpu.dcache.overall_mshr_misses::total        10009                       # number of overall MSHR misses
system.cpu.dcache.demand_mshr_miss_latency::.cpu.data    525967491                       # number of demand (read+write) MSHR miss cycles
system.cpu.dcache.demand_mshr_miss_latency::total    525967491                       # number of demand (read+write) MSHR miss cycles
system.cpu.dcache.overall_mshr_miss_latency::.cpu.data    526198491                       # number of overall MSHR miss cycles
system.cpu.dcache.overall_mshr_miss_latency::total    526198491                       # number of overall MSHR miss cycles
system.cpu.dcache.demand_mshr_miss_rate::.cpu.data     0.002536                       # mshr miss rate for demand accesses
system.cpu.dcache.demand_mshr_miss_rate::total     0.002536                       # mshr miss rate for demand accesses
system.cpu.dcache.overall_mshr_miss_rate::.cpu.data     0.002536                       # mshr miss rate for overall accesses
system.cpu.dcache.overall_mshr_miss_rate::total     0.002536                       # mshr miss rate for overall accesses
system.cpu.dcache.demand_avg_mshr_miss_latency::.cpu.data 52565.209974                       # average overall mshr miss latency
system.cpu.dcache.demand_avg_mshr_miss_latency::total 52565.209974                       # average overall mshr miss latency
system.cpu.dcache.overall_avg_mshr_miss_latency::.cpu.data 52572.533820                       # average overall mshr miss latency
system.cpu.dcache.overall_avg_mshr_miss_latency::total 52572.533820                       # average overall mshr miss latency
system.cpu.dcache.replacements                   8985                       # number of replacements
system.cpu.dcache.ReadReq_hits::.cpu.data      2077151                       # number of ReadReq hits
system.cpu.dcache.ReadReq_hits::total         2077151                       # number of ReadReq hits
system.cpu.dcache.ReadReq_misses::.cpu.data        13498                       # number of ReadReq misses
system.cpu.dcache.ReadReq_misses::total         13498                       # number of ReadReq misses
system.cpu.dcache.ReadReq_miss_latency::.cpu.data    343634500                       # number of ReadReq miss cycles
system.cpu.dcache.ReadReq_miss_latency::total    343634500                       # number of ReadReq miss cycles
system.cpu.dcache.ReadReq_accesses::.cpu.data      2090649                       # number of ReadReq accesses(hits+misses)
system.cpu.dcache.ReadReq_accesses::total      2090649                       # number of ReadReq accesses(hits+misses)
system.cpu.dcache.ReadReq_miss_rate::.cpu.data     0.006456                       # miss rate for ReadReq accesses
system.cpu.dcache.ReadReq_miss_rate::total     0.006456                       # miss rate for ReadReq accesses
system.cpu.dcache.ReadReq_avg_miss_latency::.cpu.data 25458.178989                       # average ReadReq miss latency
system.cpu.dcache.ReadReq_avg_miss_latency::total 25458.178989                       # average ReadReq miss latency
system.cpu.dcache.ReadReq_mshr_hits::.cpu.data         9304                       # number of ReadReq MSHR hits
system.cpu.dcache.ReadReq_mshr_hits::total         9304                       # number of ReadReq MSHR hits
system.cpu.dcache.ReadReq_mshr_misses::.cpu.data         4194                       # number of ReadReq MSHR misses
system.cpu.dcache.ReadReq_mshr_misses::total         4194                       # number of ReadReq MSHR misses
system.cpu.dcache.ReadReq_mshr_miss_latency::.cpu.data     86236000                       # number of ReadReq MSHR miss cycles
system.cpu.dcache.ReadReq_mshr_miss_latency::total     86236000                       # number of ReadReq MSHR miss cycles
system.cpu.dcache.ReadReq_mshr_miss_rate::.cpu.data     0.002006                       # mshr miss rate for ReadReq accesses
system.cpu.dcache.ReadReq_mshr_miss_rate::total     0.002006                       # mshr miss rate for ReadReq accesses
system.cpu.dcache.ReadReq_avg_mshr_miss_latency::.cpu.data 20561.754888                       # average ReadReq mshr miss latency
system.cpu.dcache.ReadReq_avg_mshr_miss_latency::total 20561.754888                       # average ReadReq mshr miss latency
system.cpu.dcache.WriteReq_hits::.cpu.data      1829104                       # number of WriteReq hits
system.cpu.dcache.WriteReq_hits::total        1829104                       # number of WriteReq hits
system.cpu.dcache.WriteReq_misses::.cpu.data        25708                       # number of WriteReq misses
system.cpu.dcache.WriteReq_misses::total        25708                       # number of WriteReq misses
system.cpu.dcache.WriteReq_miss_latency::.cpu.data   1550543575                       # number of WriteReq miss cycles
system.cpu.dcache.WriteReq_miss_latency::total   1550543575                       # number of WriteReq miss cycles
system.cpu.dcache.WriteReq_accesses::.cpu.data      1854812                       # number of WriteReq accesses(hits+misses)
system.cpu.dcache.WriteReq_accesses::total      1854812                       # number of WriteReq accesses(hits+misses)
system.cpu.dcache.WriteReq_miss_rate::.cpu.data     0.013860                       # miss rate for WriteReq accesses
system.cpu.dcache.WriteReq_miss_rate::total     0.013860                       # miss rate for WriteReq accesses
system.cpu.dcache.WriteReq_avg_miss_latency::.cpu.data 60313.660145                       # average WriteReq miss latency
system.cpu.dcache.WriteReq_avg_miss_latency::total 60313.660145                       # average WriteReq miss latency
system.cpu.dcache.WriteReq_mshr_hits::.cpu.data        19903                       # number of WriteReq MSHR hits
system.cpu.dcache.WriteReq_mshr_hits::total        19903                       # number of WriteReq MSHR hits
system.cpu.dcache.WriteReq_mshr_misses::.cpu.data         5805                       # number of WriteReq MSHR misses
system.cpu.dcache.WriteReq_mshr_misses::total         5805                       # number of WriteReq MSHR misses
system.cpu.dcache.WriteReq_mshr_miss_latency::.cpu.data    439515993                       # number of WriteReq MSHR miss cycles
system.cpu.dcache.WriteReq_mshr_miss_latency::total    439515993                       # number of WriteReq MSHR miss cycles
system.cpu.dcache.WriteReq_mshr_miss_rate::.cpu.data     0.003130                       # mshr miss rate for WriteReq accesses
system.cpu.dcache.WriteReq_mshr_miss_rate::total     0.003130                       # mshr miss rate for WriteReq accesses
system.cpu.dcache.WriteReq_avg_mshr_miss_latency::.cpu.data 75713.349354                       # average WriteReq mshr miss latency
system.cpu.dcache.WriteReq_avg_mshr_miss_latency::total 75713.349354                       # average WriteReq mshr miss latency
system.cpu.dcache.SoftPFReq_hits::.cpu.data         1173                       # number of SoftPFReq hits
system.cpu.dcache.SoftPFReq_hits::total          1173                       # number of SoftPFReq hits
system.cpu.dcache.SoftPFReq_misses::.cpu.data           12                       # number of SoftPFReq misses
system.cpu.dcache.SoftPFReq_misses::total           12                       # number of SoftPFReq misses
system.cpu.dcache.SoftPFReq_accesses::.cpu.data         1185                       # number of SoftPFReq accesses(hits+misses)
system.cpu.dcache.SoftPFReq_accesses::total         1185                       # number of SoftPFReq accesses(hits+misses)
system.cpu.dcache.SoftPFReq_miss_rate::.cpu.data     0.010127                       # miss rate for SoftPFReq accesses
system.cpu.dcache.SoftPFReq_miss_rate::total     0.010127                       # miss rate for SoftPFReq accesses
system.cpu.dcache.SoftPFReq_mshr_misses::.cpu.data            3                       # number of SoftPFReq MSHR misses
system.cpu.dcache.SoftPFReq_mshr_misses::total            3                       # number of SoftPFReq MSHR misses
system.cpu.dcache.SoftPFReq_mshr_miss_latency::.cpu.data       231000                       # number of SoftPFReq MSHR miss cycles
system.cpu.dcache.SoftPFReq_mshr_miss_latency::total       231000                       # number of SoftPFReq MSHR miss cycles
system.cpu.dcache.SoftPFReq_mshr_miss_rate::.cpu.data     0.002532                       # mshr miss rate for SoftPFReq accesses
system.cpu.dcache.SoftPFReq_mshr_miss_rate::total     0.002532                       # mshr miss rate for SoftPFReq accesses
system.cpu.dcache.SoftPFReq_avg_mshr_miss_latency::.cpu.data        77000                       # average SoftPFReq mshr miss latency
system.cpu.dcache.SoftPFReq_avg_mshr_miss_latency::total        77000                       # average SoftPFReq mshr miss latency
system.cpu.dcache.WriteLineReq_misses::.cpu.data            7                       # number of WriteLineReq misses
system.cpu.dcache.WriteLineReq_misses::total            7                       # number of WriteLineReq misses
system.cpu.dcache.WriteLineReq_miss_latency::.cpu.data       222498                       # number of WriteLineReq miss cycles
system.cpu.dcache.WriteLineReq_miss_latency::total       222498                       # number of WriteLineReq miss cycles
system.cpu.dcache.WriteLineReq_accesses::.cpu.data            7                       # number of WriteLineReq accesses(hits+misses)
system.cpu.dcache.WriteLineReq_accesses::total            7                       # number of WriteLineReq accesses(hits+misses)
system.cpu.dcache.WriteLineReq_miss_rate::.cpu.data            1                       # miss rate for WriteLineReq accesses
system.cpu.dcache.WriteLineReq_miss_rate::total            1                       # miss rate for WriteLineReq accesses
system.cpu.dcache.WriteLineReq_avg_miss_latency::.cpu.data 31785.428571                       # average WriteLineReq miss latency
system.cpu.dcache.WriteLineReq_avg_miss_latency::total 31785.428571                       # average WriteLineReq miss latency
system.cpu.dcache.WriteLineReq_mshr_misses::.cpu.data            7                       # number of WriteLineReq MSHR misses
system.cpu.dcache.WriteLineReq_mshr_misses::total            7                       # number of WriteLineReq MSHR misses
system.cpu.dcache.WriteLineReq_mshr_miss_latency::.cpu.data       215498                       # number of WriteLineReq MSHR miss cycles
system.cpu.dcache.WriteLineReq_mshr_miss_latency::total       215498                       # number of WriteLineReq MSHR miss cycles
system.cpu.dcache.WriteLineReq_mshr_miss_rate::.cpu.data            1                       # mshr miss rate for WriteLineReq accesses
system.cpu.dcache.WriteLineReq_mshr_miss_rate::total            1                       # mshr miss rate for WriteLineReq accesses
system.cpu.dcache.WriteLineReq_avg_mshr_miss_latency::.cpu.data 30785.428571                       # average WriteLineReq mshr miss latency
system.cpu.dcache.WriteLineReq_avg_mshr_miss_latency::total 30785.428571                       # average WriteLineReq mshr miss latency
system.cpu.dcache.LoadLockedReq_hits::.cpu.data         1947                       # number of LoadLockedReq hits
system.cpu.dcache.LoadLockedReq_hits::total         1947                       # number of LoadLockedReq hits
system.cpu.dcache.LoadLockedReq_accesses::.cpu.data         1947                       # number of LoadLockedReq accesses(hits+misses)
system.cpu.dcache.LoadLockedReq_accesses::total         1947                       # number of LoadLockedReq accesses(hits+misses)
system.cpu.dcache.StoreCondReq_hits::.cpu.data         1922                       # number of StoreCondReq hits
system.cpu.dcache.StoreCondReq_hits::total         1922                       # number of StoreCondReq hits
system.cpu.dcache.StoreCondReq_accesses::.cpu.data         1922                       # number of StoreCondReq accesses(hits+misses)
system.cpu.dcache.StoreCondReq_accesses::total         1922                       # number of StoreCondReq accesses(hits+misses)
system.cpu.dcache.power_state.pwrStateResidencyTicks::UNDEFINED   3809148500                       # Cumulative time (in ticks) in various power states
system.cpu.dcache.tags.tagsinuse           878.071579                       # Cycle average of tags in use
system.cpu.dcache.tags.total_refs             3921306                       # Total number of references to valid blocks.
system.cpu.dcache.tags.sampled_refs             10009                       # Sample count of references to valid blocks.
system.cpu.dcache.tags.avg_refs            391.778000                       # Average number of references to valid blocks.
system.cpu.dcache.tags.warmup_cycle            249500                       # Cycle when the warmup percentage was hit.
system.cpu.dcache.tags.occ_blocks::.cpu.data   878.071579                       # Average occupied blocks per requestor
system.cpu.dcache.tags.occ_percent::.cpu.data     0.857492                       # Average percentage of cache occupancy
system.cpu.dcache.tags.occ_percent::total     0.857492                       # Average percentage of cache occupancy
system.cpu.dcache.tags.occ_task_id_blocks::1024         1024                       # Occupied blocks per task id
system.cpu.dcache.tags.age_task_id_blocks_1024::0          218                       # Occupied blocks per task id
system.cpu.dcache.tags.age_task_id_blocks_1024::1          654                       # Occupied blocks per task id
system.cpu.dcache.tags.age_task_id_blocks_1024::2          152                       # Occupied blocks per task id
system.cpu.dcache.tags.occ_task_id_percent::1024            1                       # Percentage of cache occupancy per task id
system.cpu.dcache.tags.tag_accesses           7911053                       # Number of tag accesses
system.cpu.dcache.tags.data_accesses          7911053                       # Number of data accesses
system.cpu.dcache.tags.power_state.pwrStateResidencyTicks::UNDEFINED   3809148500                       # Cumulative time (in ticks) in various power states
system.cpu.power_state.pwrStateResidencyTicks::ON   3809148500                       # Cumulative time (in ticks) in various power states

---------- End Simulation Statistics   ----------
